<configuration>
    <input>
        <net-file value="final.net.xml"/>
        <route-files value="peakfinal.rou.xml"/>
    </input>
    <time>
        <begin value="0"/>
        <end value="3600"/>
    </time>
</configuration>