<net xmlns:xsi="http://www.w3.org/2001/XMLSchema-instance" version="1.16" junctionCornerDetail="5" lefthand="true" limitTurnSpeed="5.50" xsi:noNamespaceSchemaLocation="http://sumo.dlr.de/xsd/net_file.xsd">

    <location netOffset="0.00,-0.00" convBoundary="575566.91,5815852.16,575988.92,5816266.61" origBoundary="-1.888496,52.486535,-1.880824,52.491253" projParameter="+proj=utm +zone=30 +ellps=WGS84 +datum=WGS84 +units=m +no_defs" />

    <type id="highway.footway" priority="1" numLanes="1" speed="2.78" allow="pedestrian" oneway="1" width="2.00" />
    <type id="highway.secondary" priority="11" numLanes="1" speed="27.78" disallow="tram rail_urban rail rail_electric rail_fast ship" oneway="0" />
    <type id="highway.service" priority="1" numLanes="1" speed="5.56" allow="pedestrian delivery bicycle" oneway="0" />
    <type id="highway.trunk" priority="13" numLanes="2" speed="27.78" disallow="pedestrian bicycle tram rail_urban rail rail_electric rail_fast ship" oneway="0" />
    <type id="highway.unclassified" priority="4" numLanes="1" speed="13.89" disallow="tram rail_urban rail rail_electric rail_fast ship" oneway="0" />

    <edge id=":256241527_0" function="internal">
        <lane id=":256241527_0_0" index="0" disallow="pedestrian bicycle tram rail_urban rail rail_electric rail_fast ship" speed="6.32" length="9.04" shape="575674.84,5816081.85 575672.65,5816080.62 575671.45,5816079.01 575671.24,5816077.01 575672.02,5816074.62" />
    </edge>
    <edge id=":256241527_1" function="internal">
        <lane id=":256241527_1_0" index="0" disallow="pedestrian bicycle tram rail_urban rail rail_electric rail_fast ship" speed="6.05" length="7.33" shape="575666.96,5816085.16 575667.81,5816084.21 575669.21,5816083.84 575671.17,5816084.05 575673.68,5816084.84" />
    </edge>
    <edge id=":256241527_2" function="internal">
        <lane id=":256241527_2_0" index="0" disallow="pedestrian bicycle tram rail_urban rail rail_electric rail_fast ship" speed="17.88" length="11.79" shape="575666.96,5816085.16 575672.02,5816074.62" />
        <lane id=":256241527_2_1" index="1" disallow="pedestrian bicycle tram rail_urban rail rail_electric rail_fast ship" speed="17.88" length="11.79" shape="575664.05,5816083.84 575669.15,5816073.21" />
        <lane id=":256241527_2_2" index="2" disallow="pedestrian bicycle tram rail_urban rail rail_electric rail_fast ship" speed="17.88" length="11.79" shape="575661.14,5816082.51 575666.28,5816071.79" />
    </edge>
    <edge id=":256241528_0" function="internal">
        <lane id=":256241528_0_0" index="0" disallow="tram rail_urban rail rail_electric rail_fast ship" speed="13.89" length="16.29" shape="575738.89,5816117.90 575732.36,5816132.83" />
    </edge>
    <edge id=":256241528_1" function="internal">
        <lane id=":256241528_1_0" index="0" disallow="tram rail_urban rail rail_electric rail_fast ship" speed="9.51" length="16.20" shape="575738.89,5816117.90 575737.74,5816122.06 575737.95,5816125.86 575739.54,5816129.31 575742.50,5816132.41" />
    </edge>
    <edge id=":256241528_2" function="internal">
        <lane id=":256241528_2_0" index="0" disallow="tram rail_urban rail rail_electric rail_fast ship" speed="8.26" length="12.01" shape="575744.50,5816129.91 575742.31,5816127.61 575741.14,5816125.06 575740.98,5816122.24 575741.83,5816119.15" />
    </edge>
    <edge id=":256241528_3" function="internal">
        <lane id=":256241528_3_0" index="0" disallow="tram rail_urban rail rail_electric rail_fast ship" speed="13.89" length="16.34" shape="575744.50,5816129.91 575731.72,5816119.73" />
    </edge>
    <edge id=":256241528_4" function="internal">
        <lane id=":256241528_4_0" index="0" disallow="tram rail_urban rail rail_electric rail_fast ship" speed="7.62" length="4.35" shape="575744.50,5816129.91 575740.76,5816127.70" />
    </edge>
    <edge id=":256241528_11" function="internal">
        <lane id=":256241528_11_0" index="0" disallow="tram rail_urban rail rail_electric rail_fast ship" speed="7.62" length="10.91" shape="575740.76,5816127.70 575737.49,5816127.45 575734.69,5816129.16 575732.36,5816132.83" />
    </edge>
    <edge id=":256241528_5" function="internal">
        <lane id=":256241528_5_0" index="0" disallow="tram rail_urban rail rail_electric rail_fast ship" speed="6.03" length="9.07" shape="575735.28,5816134.14 575736.67,5816131.96 575738.33,5816130.94 575740.28,5816131.09 575742.50,5816132.41" />
    </edge>
    <edge id=":256241528_6" function="internal">
        <lane id=":256241528_6_0" index="0" disallow="tram rail_urban rail rail_electric rail_fast ship" speed="13.89" length="16.36" shape="575735.28,5816134.14 575741.83,5816119.15" />
    </edge>
    <edge id=":256241528_7" function="internal">
        <lane id=":256241528_7_0" index="0" disallow="tram rail_urban rail rail_electric rail_fast ship" speed="9.38" length="16.16" shape="575735.28,5816134.14 575736.50,5816130.04 575736.32,5816126.26 575734.72,5816122.83 575731.72,5816119.73" />
    </edge>
    <edge id=":256241528_8" function="internal">
        <lane id=":256241528_8_0" index="0" disallow="tram rail_urban rail rail_electric rail_fast ship" speed="8.12" length="11.88" shape="575729.74,5816122.24 575731.95,5816124.52 575733.12,5816127.04 575733.26,5816129.81 575732.36,5816132.83" />
    </edge>
    <edge id=":256241528_9" function="internal">
        <lane id=":256241528_9_0" index="0" disallow="tram rail_urban rail rail_electric rail_fast ship" speed="13.89" length="16.32" shape="575729.74,5816122.24 575742.50,5816132.41" />
    </edge>
    <edge id=":256241528_10" function="internal">
        <lane id=":256241528_10_0" index="0" disallow="tram rail_urban rail rail_electric rail_fast ship" speed="7.61" length="4.38" shape="575729.74,5816122.24 575733.52,5816124.44" />
    </edge>
    <edge id=":256241528_12" function="internal">
        <lane id=":256241528_12_0" index="0" disallow="tram rail_urban rail rail_electric rail_fast ship" speed="7.61" length="10.95" shape="575733.52,5816124.44 575736.80,5816124.66 575739.57,5816122.90 575741.83,5816119.15" />
    </edge>
    <edge id=":2766792033_0" function="internal">
        <lane id=":2766792033_0_0" index="0" disallow="pedestrian bicycle tram rail_urban rail rail_electric rail_fast ship" speed="17.88" length="5.61" shape="575704.36,5816006.87 575706.97,5816001.90" />
        <lane id=":2766792033_0_1" index="1" disallow="pedestrian bicycle tram rail_urban rail rail_electric rail_fast ship" speed="17.88" length="5.61" shape="575701.53,5816005.38 575704.13,5816000.42" />
    </edge>
    <edge id=":2766792036_0" function="internal">
        <lane id=":2766792036_0_0" index="0" disallow="pedestrian bicycle tram rail_urban rail rail_electric rail_fast ship" speed="17.88" length="0.30" shape="575684.50,5816004.57 575684.36,5816004.83" />
        <lane id=":2766792036_0_1" index="1" disallow="pedestrian bicycle tram rail_urban rail rail_electric rail_fast ship" speed="17.88" length="0.30" shape="575687.35,5816006.03 575687.21,5816006.29" />
        <lane id=":2766792036_0_2" index="2" disallow="pedestrian bicycle tram rail_urban rail rail_electric rail_fast ship" speed="17.88" length="0.30" shape="575690.20,5816007.48 575690.06,5816007.75" />
    </edge>
    <edge id=":2766792039_0" function="internal">
        <lane id=":2766792039_0_0" index="0" disallow="tram rail_urban rail rail_electric rail_fast ship" speed="8.94" length="0.11" shape="575668.69,5816014.87 575668.63,5816014.79" />
    </edge>
    <edge id=":2766792039_1" function="internal">
        <lane id=":2766792039_1_0" index="0" disallow="tram rail_urban rail rail_electric rail_fast ship" speed="8.94" length="0.32" shape="575666.08,5816016.72 575666.28,5816016.97" />
    </edge>
    <edge id=":2766792045_0" function="internal">
        <lane id=":2766792045_0_0" index="0" disallow="pedestrian bicycle tram rail_urban rail rail_electric rail_fast ship" speed="17.88" length="0.29" shape="575686.71,5816044.82 575686.86,5816044.52" />
        <lane id=":2766792045_0_1" index="1" disallow="pedestrian bicycle tram rail_urban rail rail_electric rail_fast ship" speed="17.88" length="0.29" shape="575683.84,5816043.41 575683.97,5816043.15" />
        <lane id=":2766792045_0_2" index="2" disallow="pedestrian bicycle tram rail_urban rail rail_electric rail_fast ship" speed="17.88" length="0.29" shape="575680.97,5816041.99 575681.07,5816041.77" />
    </edge>
    <edge id=":2976043389_0" function="internal">
        <lane id=":2976043389_0_0" index="0" allow="delivery" speed="5.22" length="5.22" shape="575650.45,5816068.60 575649.64,5816069.67 575648.62,5816070.23 575647.40,5816070.28 575645.98,5816069.81" />
    </edge>
    <edge id=":2976043389_1" function="internal">
        <lane id=":2976043389_1_0" index="0" disallow="pedestrian bicycle tram rail_urban rail rail_electric rail_fast ship" speed="17.88" length="9.41" shape="575650.45,5816068.60 575645.98,5816076.87" />
        <lane id=":2976043389_1_1" index="1" disallow="pedestrian bicycle tram rail_urban rail rail_electric rail_fast ship" speed="17.88" length="9.41" shape="575653.27,5816070.12 575648.79,5816078.39" />
        <lane id=":2976043389_1_2" index="2" disallow="pedestrian bicycle tram rail_urban rail rail_electric rail_fast ship" speed="17.88" length="9.41" shape="575656.08,5816071.64 575651.61,5816079.92" />
    </edge>
    <edge id=":2976043389_4" function="internal">
        <lane id=":2976043389_4_0" index="0" allow="delivery" speed="4.99" length="5.06" shape="575644.61,5816072.70 575645.78,5816073.48 575646.39,5816074.43 575646.46,5816075.56 575645.98,5816076.87" />
    </edge>
    <edge id=":3990316566_0" function="internal">
        <lane id=":3990316566_0_0" index="0" disallow="pedestrian bicycle tram rail_urban rail rail_electric rail_fast ship" speed="17.88" length="5.36" shape="575684.30,5816004.96 575681.86,5816009.72" />
        <lane id=":3990316566_0_1" index="1" disallow="pedestrian bicycle tram rail_urban rail rail_electric rail_fast ship" speed="17.88" length="5.36" shape="575687.15,5816006.42 575684.71,5816011.18" />
        <lane id=":3990316566_0_2" index="2" disallow="pedestrian bicycle tram rail_urban rail rail_electric rail_fast ship" speed="17.88" length="5.36" shape="575690.00,5816007.87 575687.56,5816012.64" />
    </edge>
    <edge id=":3990316569_0" function="internal">
        <lane id=":3990316569_0_0" index="0" disallow="pedestrian bicycle tram rail_urban rail rail_electric rail_fast ship" speed="17.88" length="5.47" shape="575663.13,5816089.37 575664.08,5816088.05 575665.04,5816087.37 575665.99,5816086.68 575666.88,5816085.35" />
        <lane id=":3990316569_0_1" index="1" disallow="pedestrian bicycle tram rail_urban rail rail_electric rail_fast ship" speed="17.88" length="5.47" shape="575660.27,5816087.93 575661.20,5816086.65 575662.15,5816085.99 575663.09,5816085.33 575663.97,5816084.02" />
        <lane id=":3990316569_0_2" index="2" disallow="pedestrian bicycle tram rail_urban rail rail_electric rail_fast ship" speed="17.88" length="5.47" shape="575660.27,5816087.93 575660.74,5816086.45 575660.70,5816085.33 575660.64,5816084.20 575661.06,5816082.69" />
    </edge>
    <edge id=":cluster23072996_J1_0" function="internal">
        <lane id=":cluster23072996_J1_0_0" index="0" disallow="tram rail_urban rail rail_electric rail_fast ship" speed="20.84" length="13.96" shape="575770.17,5816066.61 575766.90,5816065.17 575763.96,5816063.49 575761.05,5816061.72 575757.88,5816060.03" />
    </edge>
    <edge id=":cluster23072996_J1_1" function="internal">
        <lane id=":cluster23072996_J1_1_0" index="0" disallow="tram rail_urban rail rail_electric rail_fast ship" speed="8.19" length="14.28" shape="575770.17,5816066.61 575766.36,5816065.81 575763.15,5816066.39 575760.54,5816068.33 575758.54,5816071.64" />
    </edge>
    <edge id=":cluster23072996_J1_2" function="internal">
        <lane id=":cluster23072996_J1_2_0" index="0" disallow="tram rail_urban rail rail_electric rail_fast ship" speed="6.79" length="9.50" shape="575761.41,5816073.08 575762.75,5816070.84 575764.47,5816069.52 575766.59,5816069.11 575769.09,5816069.62" />
    </edge>
    <edge id=":cluster23072996_J1_3" function="internal">
        <lane id=":cluster23072996_J1_3_0" index="0" disallow="tram rail_urban rail rail_electric rail_fast ship" speed="8.39" length="15.24" shape="575761.41,5816073.08 575762.70,5816068.71 575762.54,5816065.08 575760.93,5816062.19 575757.88,5816060.03" />
    </edge>
    <edge id=":cluster23072996_J1_4" function="internal">
        <lane id=":cluster23072996_J1_4_0" index="0" disallow="tram rail_urban rail rail_electric rail_fast ship" speed="6.55" length="8.94" shape="575755.91,5816064.20 575757.89,5816065.50 575758.99,5816067.18 575759.21,5816069.22 575758.54,5816071.64" />
    </edge>
    <edge id=":cluster23072996_J1_5" function="internal">
        <lane id=":cluster23072996_J1_5_0" index="0" disallow="tram rail_urban rail rail_electric rail_fast ship" speed="20.84" length="14.26" shape="575755.91,5816064.20 575759.22,5816065.69 575762.44,5816067.06 575765.69,5816068.35 575769.09,5816069.62" />
    </edge>
    <edge id=":clusterJ2_clusterJ0_cluster3929936121_3929936122_0" function="internal">
        <lane id=":clusterJ2_clusterJ0_cluster3929936121_3929936122_0_0" index="0" disallow="pedestrian bicycle tram rail_urban rail rail_electric rail_fast ship" speed="6.14" length="10.23" shape="575678.90,5816015.51 575677.07,5816018.26 575675.17,5816019.54 575673.19,5816019.35 575671.14,5816017.69" />
    </edge>
    <edge id=":clusterJ2_clusterJ0_cluster3929936121_3929936122_1" function="internal">
        <lane id=":clusterJ2_clusterJ0_cluster3929936121_3929936122_1_0" index="0" disallow="pedestrian bicycle tram rail_urban rail rail_electric rail_fast ship" speed="17.88" length="16.41" shape="575678.90,5816015.51 575671.31,5816030.04" />
        <lane id=":clusterJ2_clusterJ0_cluster3929936121_3929936122_1_1" index="1" disallow="pedestrian bicycle tram rail_urban rail rail_electric rail_fast ship" speed="17.88" length="16.41" shape="575681.73,5816017.00 575674.13,5816031.56" />
    </edge>
    <edge id=":clusterJ2_clusterJ0_cluster3929936121_3929936122_3" function="internal">
        <lane id=":clusterJ2_clusterJ0_cluster3929936121_3929936122_3_0" index="0" disallow="pedestrian bicycle tram rail_urban rail rail_electric rail_fast ship" speed="10.27" length="12.44" shape="575684.56,5816018.49 575683.34,5816023.50 575684.95,5816028.22 575686.57,5816029.84" />
    </edge>
    <edge id=":clusterJ2_clusterJ0_cluster3929936121_3929936122_14" function="internal">
        <lane id=":clusterJ2_clusterJ0_cluster3929936121_3929936122_14_0" index="0" disallow="pedestrian bicycle tram rail_urban rail rail_electric rail_fast ship" speed="10.27" length="12.39" shape="575686.57,5816029.84 575689.40,5816032.67 575696.68,5816036.83" />
    </edge>
    <edge id=":clusterJ2_clusterJ0_cluster3929936121_3929936122_4" function="internal">
        <lane id=":clusterJ2_clusterJ0_cluster3929936121_3929936122_4_0" index="0" disallow="pedestrian bicycle tram rail_urban rail rail_electric rail_fast ship" speed="6.73" length="10.03" shape="575698.87,5816032.10 575696.31,5816030.49 575694.85,5816028.63 575694.51,5816026.51 575695.28,5816024.13" />
    </edge>
    <edge id=":clusterJ2_clusterJ0_cluster3929936121_3929936122_5" function="internal">
        <lane id=":clusterJ2_clusterJ0_cluster3929936121_3929936122_5_0" index="0" disallow="tram rail_urban rail rail_electric rail_fast ship" speed="11.42" length="31.32" shape="575698.87,5816032.10 575693.09,5816029.47 575684.54,5816025.50 575676.22,5816021.23 575671.14,5816017.69" />
    </edge>
    <edge id=":clusterJ2_clusterJ0_cluster3929936121_3929936122_6" function="internal">
        <lane id=":clusterJ2_clusterJ0_cluster3929936121_3929936122_6_0" index="0" disallow="pedestrian bicycle tram rail_urban rail rail_electric rail_fast ship" speed="10.84" length="13.74" shape="575698.87,5816032.10 575692.20,5816029.90 575685.55,5816028.97" />
    </edge>
    <edge id=":clusterJ2_clusterJ0_cluster3929936121_3929936122_15" function="internal">
        <lane id=":clusterJ2_clusterJ0_cluster3929936121_3929936122_15_0" index="0" disallow="pedestrian bicycle tram rail_urban rail rail_electric rail_fast ship" speed="10.84" length="12.08" shape="575685.55,5816028.97 575684.60,5816028.84 575677.96,5816029.27 575674.13,5816031.56" />
    </edge>
    <edge id=":clusterJ2_clusterJ0_cluster3929936121_3929936122_7" function="internal">
        <lane id=":clusterJ2_clusterJ0_cluster3929936121_3929936122_7_0" index="0" disallow="pedestrian bicycle tram rail_urban rail rail_electric rail_fast ship" speed="6.57" length="9.17" shape="575689.15,5816039.68 575690.54,5816037.56 575692.26,5816036.37 575694.31,5816036.13 575696.68,5816036.83" />
    </edge>
    <edge id=":clusterJ2_clusterJ0_cluster3929936121_3929936122_8" function="internal">
        <lane id=":clusterJ2_clusterJ0_cluster3929936121_3929936122_8_0" index="0" disallow="pedestrian bicycle tram rail_urban rail rail_electric rail_fast ship" speed="17.88" length="16.70" shape="575689.15,5816039.68 575695.28,5816024.13" />
        <lane id=":clusterJ2_clusterJ0_cluster3929936121_3929936122_8_1" index="1" disallow="pedestrian bicycle tram rail_urban rail rail_electric rail_fast ship" speed="17.88" length="16.70" shape="575686.33,5816038.16 575692.44,5816022.64" />
    </edge>
    <edge id=":clusterJ2_clusterJ0_cluster3929936121_3929936122_10" function="internal">
        <lane id=":clusterJ2_clusterJ0_cluster3929936121_3929936122_10_0" index="0" disallow="pedestrian bicycle tram rail_urban rail rail_electric rail_fast ship" speed="12.05" length="10.43" shape="575683.51,5816036.64 575683.28,5816034.30 575681.15,5816030.37 575679.02,5816027.45" />
    </edge>
    <edge id=":clusterJ2_clusterJ0_cluster3929936121_3929936122_16" function="internal">
        <lane id=":clusterJ2_clusterJ0_cluster3929936121_3929936122_16_0" index="0" disallow="pedestrian bicycle tram rail_urban rail rail_electric rail_fast ship" speed="12.05" length="12.55" shape="575679.02,5816027.45 575677.10,5816024.83 575671.14,5816017.69" />
    </edge>
    <edge id=":clusterJ2_clusterJ0_cluster3929936121_3929936122_11" function="internal">
        <lane id=":clusterJ2_clusterJ0_cluster3929936121_3929936122_11_0" index="0" disallow="pedestrian bicycle tram rail_urban rail rail_electric rail_fast ship" speed="8.34" length="11.27" shape="575668.73,5816019.79 575670.77,5816022.59 575671.88,5816025.23 575672.06,5816027.72 575671.31,5816030.04" />
    </edge>
    <edge id=":clusterJ2_clusterJ0_cluster3929936121_3929936122_12" function="internal">
        <lane id=":clusterJ2_clusterJ0_cluster3929936121_3929936122_12_0" index="0" disallow="tram rail_urban rail rail_electric rail_fast ship" speed="11.42" length="32.80" shape="575668.73,5816019.79 575673.84,5816023.75 575682.23,5816028.94 575690.86,5816033.81 575696.68,5816036.83" />
    </edge>
    <edge id=":clusterJ2_clusterJ0_cluster3929936121_3929936122_13" function="internal">
        <lane id=":clusterJ2_clusterJ0_cluster3929936121_3929936122_13_0" index="0" disallow="pedestrian bicycle tram rail_urban rail rail_electric rail_fast ship" speed="9.55" length="15.14" shape="575668.73,5816019.79 575674.12,5816023.76 575681.16,5816026.11 575682.19,5816026.09" />
    </edge>
    <edge id=":clusterJ2_clusterJ0_cluster3929936121_3929936122_17" function="internal">
        <lane id=":clusterJ2_clusterJ0_cluster3929936121_3929936122_17_0" index="0" disallow="pedestrian bicycle tram rail_urban rail rail_electric rail_fast ship" speed="9.55" length="11.37" shape="575682.19,5816026.09 575687.91,5816026.01 575692.44,5816022.64" />
    </edge>

    <edge id="-23652056#0" from="256241528" to="256241525" priority="4" type="highway.unclassified" shape="575737.16,5816126.07 575694.71,5816220.46 575685.32,5816242.70 575684.35,5816246.32 575683.39,5816259.33">
        <lane id="-23652056#0_0" index="0" disallow="tram rail_urban rail rail_electric rail_fast ship" speed="13.89" length="136.86" shape="575732.36,5816132.83 575693.24,5816219.82 575683.80,5816242.18 575682.76,5816246.05 575681.80,5816259.22" />
    </edge>
    <edge id="-23652056#1" from="cluster23072996_J1" to="256241528" priority="4" type="highway.unclassified" shape="575763.20,5816065.81 575760.37,5816071.43 575737.16,5816126.07">
        <lane id="-23652056#1_0" index="0" disallow="tram rail_urban rail rail_electric rail_fast ship" speed="13.89" length="50.26" shape="575758.54,5816071.64 575738.89,5816117.90" />
    </edge>
    <edge id="-23652058#0" from="256241528" to="256241527" priority="4" type="highway.unclassified" shape="575737.16,5816126.07 575692.13,5816090.46 575675.75,5816083.92 575665.77,5816080.06">
        <lane id="-23652058#0_0" index="0" disallow="tram rail_urban rail rail_electric rail_fast ship" speed="13.89" length="68.93" shape="575731.72,5816119.73 575692.94,5816089.06 575676.34,5816082.44 575674.84,5816081.85" />
    </edge>
    <edge id="-23652058#1" from="256241531" to="256241528" priority="4" type="highway.unclassified" shape="575910.88,5816266.61 575891.30,5816249.81 575849.60,5816215.00 575807.56,5816183.08 575804.05,5816180.00 575800.19,5816176.61 575737.16,5816126.07">
        <lane id="-23652058#1_0" index="0" disallow="tram rail_urban rail rail_electric rail_fast ship" speed="13.89" length="215.42" shape="575911.92,5816265.40 575892.33,5816248.59 575850.59,5816213.75 575808.57,5816181.85 575805.11,5816178.80 575801.22,5816175.38 575744.50,5816129.91" />
    </edge>
    <edge id="-238237546#3" from="2766792039" to="442604500" priority="4" type="highway.unclassified">
        <lane id="-238237546#3_0" index="0" disallow="tram rail_urban rail rail_electric rail_fast ship" speed="8.94" length="14.28" shape="575668.63,5816014.79 575660.00,5816003.41" />
    </edge>
    <edge id="-238237546#4" from="clusterJ2_clusterJ0_cluster3929936121_3929936122" to="2766792039" priority="4" type="highway.unclassified" shape="575676.80,5816026.62 575667.42,5816015.84">
        <lane id="-238237546#4_0" index="0" disallow="tram rail_urban rail rail_electric rail_fast ship" speed="8.94" length="3.73" shape="575671.14,5816017.69 575668.69,5816014.87" />
    </edge>
    <edge id="-294036154" from="2976043389" to="2591702191" priority="1" type="highway.service" shape="575651.15,5816074.03 575590.72,5816045.37 575569.44,5816036.69 575566.91,5816035.66">
        <lane id="-294036154_0" index="0" allow="pedestrian delivery bicycle" speed="5.56" length="86.21" shape="575645.98,5816069.81 575591.37,5816043.90 575570.05,5816035.21 575567.52,5816034.18" />
    </edge>
    <edge id="-4935880#2" from="3945465895" to="cluster23072996_J1" priority="11" type="highway.secondary" shape="575988.92,5816137.12 575974.85,5816136.97 575967.73,5816134.68 575948.73,5816128.56 575845.23,5816095.24 575763.20,5816065.81">
        <lane id="-4935880#2_0" index="0" disallow="tram rail_urban rail rail_electric rail_fast ship" speed="27.78" length="230.03" shape="575988.94,5816135.52 575975.11,5816135.37 575968.22,5816133.15 575949.22,5816127.04 575845.75,5816093.73 575770.17,5816066.61" />
        <param key="ref" value="B4133" />
    </edge>
    <edge id="23425210#0" from="clusterJ2_clusterJ0_cluster3929936121_3929936122" to="2766792033" priority="13" type="highway.trunk" spreadType="center" shape="575688.61,5816033.36 575704.24,5816003.68">
        <lane id="23425210#0_0" index="0" disallow="pedestrian bicycle tram rail_urban rail rail_electric rail_fast ship" speed="17.88" length="19.50" shape="575695.28,5816024.13 575704.36,5816006.87" />
        <lane id="23425210#0_1" index="1" disallow="pedestrian bicycle tram rail_urban rail rail_electric rail_fast ship" speed="17.88" length="19.50" shape="575692.44,5816022.64 575701.53,5816005.38" />
        <param key="ref" value="A4540" />
    </edge>
    <edge id="23425210#1" from="2766792033" to="886429867" priority="13" type="highway.trunk" spreadType="center" shape="575704.24,5816003.68 575736.67,5815941.33 575767.18,5815881.29 575783.69,5815852.16">
        <lane id="23425210#1_0" index="0" disallow="pedestrian bicycle tram rail_urban rail rail_electric rail_fast ship" speed="17.88" length="168.27" shape="575706.97,5816001.90 575738.09,5815942.06 575768.59,5815882.04 575785.09,5815852.95" />
        <lane id="23425210#1_1" index="1" disallow="pedestrian bicycle tram rail_urban rail rail_electric rail_fast ship" speed="17.88" length="168.27" shape="575704.13,5816000.42 575735.25,5815940.59 575765.77,5815880.53 575782.30,5815851.37" />
        <param key="ref" value="A4540" />
    </edge>
    <edge id="23652056#0" from="256241525" to="256241528" priority="4" type="highway.unclassified" shape="575683.39,5816259.33 575684.35,5816246.32 575685.32,5816242.70 575694.71,5816220.46 575737.16,5816126.07">
        <lane id="23652056#0_0" index="0" disallow="tram rail_urban rail rail_electric rail_fast ship" speed="13.89" length="135.74" shape="575684.99,5816259.45 575685.93,5816246.59 575686.84,5816243.22 575696.18,5816221.10 575735.28,5816134.14" />
    </edge>
    <edge id="23652056#1" from="256241528" to="cluster23072996_J1" priority="4" type="highway.unclassified" shape="575737.16,5816126.07 575760.37,5816071.43 575763.20,5816065.81">
        <lane id="23652056#1_0" index="0" disallow="tram rail_urban rail rail_electric rail_fast ship" speed="13.89" length="50.06" shape="575741.83,5816119.15 575761.41,5816073.08" />
    </edge>
    <edge id="23652058#0" from="256241527" to="256241528" priority="4" type="highway.unclassified" shape="575665.77,5816080.06 575675.75,5816083.92 575692.13,5816090.46 575737.16,5816126.07">
        <lane id="23652058#0_0" index="0" disallow="tram rail_urban rail rail_electric rail_fast ship" speed="13.89" length="67.97" shape="575673.68,5816084.84 575675.17,5816085.41 575691.32,5816091.86 575729.74,5816122.24" />
    </edge>
    <edge id="23652058#1" from="256241528" to="256241531" priority="4" type="highway.unclassified" shape="575737.16,5816126.07 575800.19,5816176.61 575804.05,5816180.00 575807.56,5816183.08 575849.60,5816215.00 575891.30,5816249.81 575910.88,5816266.61">
        <lane id="23652058#1_0" index="0" disallow="tram rail_urban rail rail_electric rail_fast ship" speed="13.89" length="215.32" shape="575742.50,5816132.41 575799.16,5816177.83 575803.00,5816181.21 575806.54,5816184.32 575848.60,5816216.25 575890.26,5816251.03 575909.84,5816267.82" />
    </edge>
    <edge id="238237546#3" from="442604500" to="2766792039" priority="4" type="highway.unclassified">
        <lane id="238237546#3_0" index="0" disallow="tram rail_urban rail rail_electric rail_fast ship" speed="8.94" length="14.28" shape="575657.45,5816005.34 575666.08,5816016.72" />
    </edge>
    <edge id="238237546#4" from="2766792039" to="clusterJ2_clusterJ0_cluster3929936121_3929936122" priority="4" type="highway.unclassified" shape="575667.42,5816015.84 575676.80,5816026.62">
        <lane id="238237546#4_0" index="0" disallow="tram rail_urban rail rail_electric rail_fast ship" speed="8.94" length="3.73" shape="575666.28,5816016.97 575668.73,5816019.79" />
    </edge>
    <edge id="294036154" from="2591702191" to="2976043389" priority="1" type="highway.service" shape="575566.91,5816035.66 575569.44,5816036.69 575590.72,5816045.37 575651.15,5816074.03">
        <lane id="294036154_0" index="0" allow="pedestrian delivery bicycle" speed="5.56" length="86.03" shape="575566.31,5816037.15 575568.84,5816038.18 575590.08,5816046.83 575644.61,5816072.70" />
    </edge>
    <edge id="396241008#0" from="3990316569" to="256241527" priority="13" type="highway.trunk" spreadType="center">
        <lane id="396241008#0_0" index="0" disallow="pedestrian bicycle tram rail_urban rail rail_electric rail_fast ship" speed="17.88" length="0.20" shape="575666.88,5816085.35 575666.96,5816085.16" />
        <lane id="396241008#0_1" index="1" disallow="pedestrian bicycle tram rail_urban rail rail_electric rail_fast ship" speed="17.88" length="0.20" shape="575663.97,5816084.02 575664.05,5816083.84" />
        <lane id="396241008#0_2" index="2" disallow="pedestrian bicycle tram rail_urban rail rail_electric rail_fast ship" speed="17.88" length="0.20" shape="575661.06,5816082.69 575661.14,5816082.51" />
        <param key="ref" value="A4540" />
    </edge>
    <edge id="396241008#1" from="256241527" to="2766792045" priority="13" type="highway.trunk" spreadType="center">
        <lane id="396241008#1_0" index="0" disallow="pedestrian bicycle tram rail_urban rail rail_electric rail_fast ship" speed="17.88" length="33.22" shape="575672.02,5816074.62 575686.71,5816044.82" />
        <lane id="396241008#1_1" index="1" disallow="pedestrian bicycle tram rail_urban rail rail_electric rail_fast ship" speed="17.88" length="33.22" shape="575669.15,5816073.21 575683.84,5816043.41" />
        <lane id="396241008#1_2" index="2" disallow="pedestrian bicycle tram rail_urban rail rail_electric rail_fast ship" speed="17.88" length="33.22" shape="575666.28,5816071.79 575680.97,5816041.99" />
        <param key="ref" value="A4540" />
    </edge>
    <edge id="396241008#2" from="2766792045" to="clusterJ2_clusterJ0_cluster3929936121_3929936122" priority="13" type="highway.trunk" spreadType="center" shape="575683.90,5816043.28 575688.61,5816033.36">
        <lane id="396241008#2_0" index="0" disallow="pedestrian bicycle tram rail_urban rail rail_electric rail_fast ship" speed="17.88" length="5.52" shape="575686.86,5816044.52 575689.15,5816039.68" />
        <lane id="396241008#2_1" index="1" disallow="pedestrian bicycle tram rail_urban rail rail_electric rail_fast ship" speed="17.88" length="5.52" shape="575683.97,5816043.15 575686.33,5816038.16" />