<?xml version="1.0" encoding="UTF-8"?>

<!-- generated on 2024-04-02 02:57:53.222990 by randomTrips.py v1_19_0+0000-baa66a0f364
<configuration>
    <net-file value="/Users/syman/Documents/FYP/prototype4.net.xml"/>
    <route-file value="/Users/syman/Documents/FYP/peak4.rou.xml"/>
    <period value="1.0"/>
    <binomial value="5"/>
</configuration>
-->

<!-- generated on 2024-04-02 02:57:53 by Eclipse SUMO duarouter Version 1.19.0
<configuration xmlns:xsi="http://www.w3.org/2001/XMLSchema-instance" xsi:noNamespaceSchemaLocation="http://sumo.dlr.de/xsd/duarouterConfiguration.xsd">

    <input>
        <net-file value="/Users/syman/Documents/FYP/prototype4.net.xml"/>
        <route-files value="trips.trips.xml"/>
    </input>

    <output>
        <output-file value="/Users/syman/Documents/FYP/peak4.rou.xml"/>
        <alternatives-output value="NUL"/>
    </output>

    <time>
        <begin value="0"/>
        <end value="3600.0"/>
    </time>

    <report>
        <no-warnings value="true"/>
        <ignore-errors value="true"/>
        <no-step-log value="true"/>
    </report>

</configuration>
-->

<routes xmlns:xsi="http://www.w3.org/2001/XMLSchema-instance" xsi:noNamespaceSchemaLocation="http://sumo.dlr.de/xsd/routes_file.xsd">
    <vehicle id="1" depart="1.00">
        <route edges="B3B2 B2A2"/>
    </vehicle>
    <vehicle id="2" depart="1.00">
        <route edges="B1B2 B2C2 C2C1"/>
    </vehicle>
    <vehicle id="3" depart="2.00">
        <route edges="C3C2 C2C1"/>
    </vehicle>
    <vehicle id="4" depart="3.00">
        <route edges="D2C2 C2B2 B2B3"/>
    </vehicle>
    <vehicle id="5" depart="3.00">
        <route edges="A2B2 B2C2 C2C3"/>
    </vehicle>
    <vehicle id="6" depart="5.00">
        <route edges="B1B2 B2B3"/>
    </vehicle>
    <vehicle id="7" depart="6.00">
        <route edges="B1B2 B2A2"/>
    </vehicle>
    <vehicle id="8" depart="8.00">
        <route edges="C2B2 B2B1"/>
    </vehicle>
    <vehicle id="11" depart="14.00">
        <route edges="B3B2 B2C2 C2D2"/>
    </vehicle>
    <vehicle id="13" depart="16.00">
        <route edges="B3B2 B2C2"/>
    </vehicle>
    <vehicle id="14" depart="17.00">
        <route edges="D2C2 C2C3"/>
    </vehicle>
    <vehicle id="15" depart="17.00">
        <route edges="C3C2 C2B2"/>
    </vehicle>
    <vehicle id="18" depart="19.00">
        <route edges="B3B2 B2A2"/>
    </vehicle>
    <vehicle id="20" depart="22.00">
        <route edges="B1B2 B2B3"/>
    </vehicle>
    <vehicle id="21" depart="23.00">
        <route edges="C2B2 B2B1"/>
    </vehicle>
    <vehicle id="22" depart="24.00">
        <route edges="B1B2 B2C2 C2C1"/>
    </vehicle>
    <vehicle id="23" depart="24.00">
        <route edges="D2C2 C2B2"/>
    </vehicle>
    <vehicle id="24" depart="25.00">
        <route edges="A2B2 B2C2"/>
    </vehicle>
    <vehicle id="26" depart="27.00">
        <route edges="B3B2 B2C2"/>
    </vehicle>
    <vehicle id="27" depart="28.00">
        <route edges="D2C2 C2C3"/>
    </vehicle>
    <vehicle id="28" depart="29.00">
        <route edges="B3B2 B2B1"/>
    </vehicle>
    <vehicle id="29" depart="29.00">
        <route edges="B3B2 B2C2 C2D2"/>
    </vehicle>
    <vehicle id="30" depart="31.00">
        <route edges="B2C2 C2D2"/>
    </vehicle>
    <vehicle id="31" depart="32.00">
        <route edges="C1C2 C2B2"/>
    </vehicle>
    <vehicle id="32" depart="32.00">
        <route edges="D2C2 C2B2 B2A2"/>
    </vehicle>
    <vehicle id="34" depart="33.00">
        <route edges="D2C2 C2B2 B2B1"/>
    </vehicle>
    <vehicle id="35" depart="36.00">
        <route edges="B3B2 B2C2 C2D2"/>
    </vehicle>
    <vehicle id="36" depart="36.00">
        <route edges="B1B2 B2B3"/>
    </vehicle>
    <vehicle id="37" depart="37.00">
        <route edges="C3C2 C2C1"/>
    </vehicle>
    <vehicle id="38" depart="38.00">
        <route edges="C3C2 C2B2 B2B3"/>
    </vehicle>
    <vehicle id="41" depart="41.00">
        <route edges="C3C2 C2C1"/>
    </vehicle>
    <vehicle id="42" depart="42.00">
        <route edges="A2B2 B2C2 C2D2"/>
    </vehicle>
    <vehicle id="43" depart="43.00">
        <route edges="B1B2 B2B3"/>
    </vehicle>
    <vehicle id="44" depart="45.00">
        <route edges="C3C2 C2D2"/>
    </vehicle>
    <vehicle id="45" depart="45.00">
        <route edges="D2C2 C2C3"/>
    </vehicle>
    <vehicle id="46" depart="46.00">
        <route edges="C2B2 B2B3"/>
    </vehicle>
    <vehicle id="48" depart="49.00">
        <route edges="B1B2 B2B3"/>
    </vehicle>
    <vehicle id="49" depart="51.00">
        <route edges="D2C2 C2B2 B2B1"/>
    </vehicle>
    <vehicle id="50" depart="51.00">
        <route edges="B3B2 B2C2 C2C1"/>
    </vehicle>
    <vehicle id="51" depart="53.00">
        <route edges="D2C2 C2B2"/>
    </vehicle>
    <vehicle id="52" depart="54.00">
        <route edges="C2B2 B2B3"/>
    </vehicle>
    <vehicle id="53" depart="56.00">
        <route edges="B3B2 B2C2 C2D2"/>
    </vehicle>
    <vehicle id="54" depart="57.00">
        <route edges="B2C2"/>
    </vehicle>
    <vehicle id="56" depart="60.00">
        <route edges="A2B2 B2B1"/>
    </vehicle>
    <vehicle id="57" depart="61.00">
        <route edges="B3B2 B2C2 C2C1"/>
    </vehicle>
    <vehicle id="60" depart="62.00">
        <route edges="B3B2 B2B1"/>
    </vehicle>
    <vehicle id="61" depart="62.00">
        <route edges="B1B2 B2C2 C2C3"/>
    </vehicle>
    <vehicle id="63" depart="67.00">
        <route edges="B1B2 B2C2 C2C1"/>
    </vehicle>
    <vehicle id="65" depart="70.00">
        <route edges="B2C2 C2C3"/>
    </vehicle>
    <vehicle id="66" depart="72.00">
        <route edges="B2C2 C2C1"/>
    </vehicle>
    <vehicle id="67" depart="72.00">
        <route edges="B3B2 B2B1"/>
    </vehicle>
    <vehicle id="69" depart="73.00">
        <route edges="C2B2 B2B1"/>
    </vehicle>
    <vehicle id="70" depart="73.00">
        <route edges="B3B2 B2B1"/>
    </vehicle>
    <vehicle id="72" depart="76.00">
        <route edges="A2B2 B2B1"/>
    </vehicle>
    <vehicle id="73" depart="76.00">
        <route edges="C2B2"/>
    </vehicle>
    <vehicle id="75" depart="77.00">
        <route edges="C3C2 C2D2"/>
    </vehicle>
    <vehicle id="79" depart="79.00">
        <route edges="D2C2 C2C3"/>
    </vehicle>
    <vehicle id="80" depart="81.00">
        <route edges="D2C2 C2C1"/>
    </vehicle>
    <vehicle id="81" depart="84.00">
        <route edges="D2C2 C2B2 B2B1"/>
    </vehicle>
    <vehicle id="82" depart="85.00">
        <route edges="C3C2 C2B2 B2B1"/>
    </vehicle>
    <vehicle id="83" depart="86.00">
        <route edges="D2C2 C2B2 B2A2"/>
    </vehicle>
    <vehicle id="84" depart="88.00">
        <route edges="B1B2 B2C2 C2C1"/>
    </vehicle>
    <vehicle id="85" depart="90.00">
        <route edges="B1B2 B2A2"/>
    </vehicle>
    <vehicle id="86" depart="90.00">
        <route edges="B1B2 B2C2"/>
    </vehicle>
    <vehicle id="90" depart="94.00">
        <route edges="A2B2 B2C2 C2D2"/>
    </vehicle>
    <vehicle id="91" depart="94.00">
        <route edges="C2B2 B2A2"/>
    </vehicle>
    <vehicle id="92" depart="95.00">
        <route edges="C1C2 C2B2 B2B3"/>
    </vehicle>
    <vehicle id="93" depart="95.00">
        <route edges="C3C2 C2B2"/>
    </vehicle>
    <vehicle id="94" depart="98.00">
        <route edges="B1B2 B2A2"/>
    </vehicle>
    <vehicle id="96" depart="102.00">
        <route edges="B1B2 B2B3"/>
    </vehicle>
    <vehicle id="98" depart="103.00">
        <route edges="A2B2 B2C2"/>
    </vehicle>
    <vehicle id="99" depart="104.00">
        <route edges="D2C2 C2C3"/>
    </vehicle>
    <vehicle id="103" depart="110.00">
        <route edges="B2C2 C2C3"/>
    </vehicle>
    <vehicle id="104" depart="112.00">
        <route edges="D2C2 C2B2"/>
    </vehicle>
    <vehicle id="105" depart="112.00">
        <route edges="C1C2 C2B2"/>
    </vehicle>
    <vehicle id="108" depart="117.00">
        <route edges="C1C2 C2B2 B2B3"/>
    </vehicle>
    <vehicle id="109" depart="118.00">
        <route edges="C2B2"/>
    </vehicle>
    <vehicle id="111" depart="120.00">
        <route edges="C1C2 C2B2"/>
    </vehicle>
    <vehicle id="112" depart="122.00">
        <route edges="B3B2 B2C2 C2D2"/>
    </vehicle>
    <vehicle id="113" depart="125.00">
        <route edges="A2B2 B2C2 C2C1"/>
    </vehicle>
    <vehicle id="115" depart="126.00">
        <route edges="C3C2 C2B2 B2B3"/>
    </vehicle>
    <vehicle id="116" depart="127.00">
        <route edges="C1C2 C2B2"/>
    </vehicle>
    <vehicle id="117" depart="127.00">
        <route edges="A2B2 B2C2 C2C3"/>
    </vehicle>
    <vehicle id="119" depart="128.00">
        <route edges="C3C2 C2D2"/>
    </vehicle>
    <vehicle id="121" depart="130.00">
        <route edges="B3B2 B2C2"/>
    </vehicle>
    <vehicle id="123" depart="136.00">
        <route edges="B2C2 C2C1"/>
    </vehicle>
    <vehicle id="125" depart="139.00">
        <route edges="D2C2 C2B2 B2B1"/>
    </vehicle>
    <vehicle id="127" depart="142.00">
        <route edges="B1B2 B2A2"/>
    </vehicle>
    <vehicle id="128" depart="143.00">
        <route edges="C3C2 C2D2"/>
    </vehicle>
    <vehicle id="129" depart="143.00">
        <route edges="D2C2 C2B2 B2B3"/>
    </vehicle>
    <vehicle id="130" depart="144.00">
        <route edges="D2C2 C2B2 B2B1"/>
    </vehicle>
    <vehicle id="131" depart="145.00">
        <route edges="B3B2 B2A2"/>
    </vehicle>
    <vehicle id="132" depart="146.00">
        <route edges="B2C2"/>
    </vehicle>
    <vehicle id="133" depart="146.00">
        <route edges="C2B2"/>
    </vehicle>
    <vehicle id="134" depart="147.00">
        <route edges="A2B2 B2C2 C2C3"/>
    </vehicle>
    <vehicle id="135" depart="148.00">
        <route edges="C3C2 C2B2 B2B1"/>
    </vehicle>
    <vehicle id="136" depart="148.00">
        <route edges="C1C2 C2B2 B2A2"/>
    </vehicle>
    <vehicle id="137" depart="150.00">
        <route edges="D2C2 C2B2 B2A2"/>
    </vehicle>
    <vehicle id="138" depart="150.00">
        <route edges="B1B2 B2B3"/>
    </vehicle>
    <vehicle id="139" depart="150.00">
        <route edges="C2B2 B2A2"/>
    </vehicle>
    <vehicle id="140" depart="150.00">
        <route edges="C3C2 C2B2 B2B1"/>
    </vehicle>
    <vehicle id="141" depart="151.00">
        <route edges="A2B2 B2C2 C2C1"/>
    </vehicle>
    <vehicle id="142" depart="152.00">
        <route edges="C1C2 C2D2"/>
    </vehicle>
    <vehicle id="144" depart="153.00">
        <route edges="B3B2 B2C2"/>
    </vehicle>
    <vehicle id="146" depart="154.00">
        <route edges="B2C2 C2C1"/>
    </vehicle>
    <vehicle id="148" depart="157.00">
        <route edges="B3B2 B2C2 C2C1"/>
    </vehicle>
    <vehicle id="149" depart="158.00">
        <route edges="D2C2 C2B2 B2A2"/>
    </vehicle>
    <vehicle id="150" depart="158.00">
        <route edges="A2B2 B2C2 C2C1"/>
    </vehicle>
    <vehicle id="151" depart="159.00">
        <route edges="B2C2 C2C1"/>
    </vehicle>
    <vehicle id="152" depart="162.00">
        <route edges="C3C2 C2B2 B2B3"/>
    </vehicle>
    <vehicle id="153" depart="163.00">
        <route edges="D2C2 C2C3"/>
    </vehicle>
    <vehicle id="154" depart="164.00">
        <route edges="C2B2 B2B3"/>
    </vehicle>
    <vehicle id="155" depart="164.00">
        <route edges="C3C2 C2B2"/>
    </vehicle>
    <vehicle id="156" depart="165.00">
        <route edges="C2B2 B2A2"/>
    </vehicle>
    <vehicle id="157" depart="166.00">
        <route edges="A2B2 B2B1"/>
    </vehicle>
    <vehicle id="162" depart="170.00">
        <route edges="C2B2 B2B1"/>
    </vehicle>
    <vehicle id="163" depart="171.00">
        <route edges="C3C2 C2B2 B2A2"/>
    </vehicle>
    <vehicle id="164" depart="171.00">
        <route edges="D2C2 C2C3"/>
    </vehicle>
    <vehicle id="166" depart="173.00">
        <route edges="C3C2 C2B2 B2B1"/>
    </vehicle>
    <vehicle id="167" depart="174.00">
        <route edges="C1C2 C2B2 B2A2"/>
    </vehicle>
    <vehicle id="170" depart="179.00">
        <route edges="A2B2 B2C2"/>
    </vehicle>
    <vehicle id="171" depart="179.00">
        <route edges="C1C2 C2B2 B2B3"/>
    </vehicle>
    <vehicle id="172" depart="180.00">
        <route edges="C3C2 C2B2 B2A2"/>
    </vehicle>
    <vehicle id="174" depart="183.00">
        <route edges="B1B2 B2C2"/>
    </vehicle>
    <vehicle id="176" depart="185.00">
        <route edges="A2B2 B2C2 C2C1"/>
    </vehicle>
    <vehicle id="177" depart="187.00">
        <route edges="B2C2 C2D2"/>
    </vehicle>
    <vehicle id="178" depart="190.00">
        <route edges="B1B2 B2C2 C2D2"/>
    </vehicle>
    <vehicle id="179" depart="191.00">
        <route edges="A2B2 B2C2 C2C3"/>
    </vehicle>
    <vehicle id="181" depart="192.00">
        <route edges="B2C2 C2C3"/>
    </vehicle>
    <vehicle id="182" depart="192.00">
        <route edges="B3B2 B2B1"/>
    </vehicle>
    <vehicle id="183" depart="193.00">
        <route edges="B3B2 B2C2"/>
    </vehicle>
    <vehicle id="184" depart="197.00">
        <route edges="B2C2 C2C1"/>
    </vehicle>
    <vehicle id="186" depart="199.00">
        <route edges="B3B2 B2C2 C2D2"/>
    </vehicle>
    <vehicle id="188" depart="200.00">
        <route edges="D2C2 C2C3"/>
    </vehicle>
    <vehicle id="189" depart="201.00">
        <route edges="B2C2 C2C3"/>
    </vehicle>
    <vehicle id="193" depart="203.00">
        <route edges="B3B2 B2C2 C2C3"/>
    </vehicle>
    <vehicle id="194" depart="203.00">
        <route edges="D2C2 C2B2"/>
    </vehicle>
    <vehicle id="195" depart="203.00">
        <route edges="C1C2 C2B2 B2B1"/>
    </vehicle>
    <vehicle id="197" depart="204.00">
        <route edges="D2C2 C2B2 B2A2"/>
    </vehicle>
    <vehicle id="198" depart="206.00">
        <route edges="C3C2 C2B2 B2B3"/>
    </vehicle>
    <vehicle id="199" depart="207.00">
        <route edges="C1C2 C2C3"/>
    </vehicle>
    <vehicle id="202" depart="209.00">
        <route edges="B1B2 B2A2"/>
    </vehicle>
    <vehicle id="203" depart="210.00">
        <route edges="B2C2 C2C3"/>
    </vehicle>
    <vehicle id="204" depart="211.00">
        <route edges="B2C2 C2D2"/>
    </vehicle>
    <vehicle id="205" depart="213.00">
        <route edges="C1C2 C2C3"/>
    </vehicle>
    <vehicle id="206" depart="214.00">
        <route edges="C2B2 B2B3"/>
    </vehicle>
    <vehicle id="207" depart="215.00">
        <route edges="C3C2 C2B2 B2B3"/>
    </vehicle>
    <vehicle id="208" depart="216.00">
        <route edges="C2B2 B2B3"/>
    </vehicle>
    <vehicle id="209" depart="216.00">
        <route edges="C1C2 C2C3"/>
    </vehicle>
    <vehicle id="210" depart="217.00">
        <route edges="A2B2 B2C2 C2C3"/>
    </vehicle>
    <vehicle id="214" depart="223.00">
        <route edges="C1C2 C2D2"/>
    </vehicle>
    <vehicle id="216" depart="224.00">
        <route edges="C1C2 C2B2 B2B3"/>
    </vehicle>
    <vehicle id="217" depart="225.00">
        <route edges="B2C2 C2D2"/>
    </vehicle>
    <vehicle id="218" depart="226.00">
        <route edges="D2C2 C2C1"/>
    </vehicle>
    <vehicle id="220" depart="228.00">
        <route edges="A2B2 B2B1"/>
    </vehicle>
    <vehicle id="221" depart="228.00">
        <route edges="B2C2 C2C1"/>
    </vehicle>
    <vehicle id="223" depart="230.00">
        <route edges="D2C2 C2B2 B2B1"/>
    </vehicle>
    <vehicle id="224" depart="232.00">
        <route edges="A2B2 B2C2 C2C1"/>
    </vehicle>
    <vehicle id="225" depart="234.00">
        <route edges="A2B2 B2C2"/>
    </vehicle>
    <vehicle id="227" depart="237.00">
        <route edges="B2C2"/>
    </vehicle>
    <vehicle id="229" depart="239.00">
        <route edges="D2C2 C2B2"/>
    </vehicle>
    <vehicle id="230" depart="240.00">
        <route edges="B3B2 B2C2 C2D2"/>
    </vehicle>
    <vehicle id="231" depart="243.00">
        <route edges="C1C2 C2B2 B2A2"/>
    </vehicle>
    <vehicle id="233" depart="245.00">
        <route edges="C1C2 C2B2"/>
    </vehicle>
    <vehicle id="234" depart="245.00">
        <route edges="B1B2 B2B3"/>
    </vehicle>
    <vehicle id="235" depart="246.00">
        <route edges="D2C2 C2C1"/>
    </vehicle>
    <vehicle id="236" depart="249.00">
        <route edges="B3B2 B2C2 C2D2"/>
    </vehicle>
    <vehicle id="237" depart="251.00">
        <route edges="C2B2"/>
    </vehicle>
    <vehicle id="238" depart="251.00">
        <route edges="C2B2 B2A2"/>
    </vehicle>
    <vehicle id="242" depart="254.00">
        <route edges="D2C2 C2B2 B2B3"/>
    </vehicle>
    <vehicle id="245" depart="261.00">
        <route edges="C1C2 C2B2"/>
    </vehicle>
    <vehicle id="246" depart="262.00">
        <route edges="B3B2 B2C2 C2C1"/>
    </vehicle>
    <vehicle id="247" depart="262.00">
        <route edges="C3C2 C2B2 B2A2"/>
    </vehicle>
    <vehicle id="248" depart="263.00">
        <route edges="D2C2 C2B2 B2B3"/>
    </vehicle>
    <vehicle id="249" depart="264.00">
        <route edges="C1C2 C2B2"/>
    </vehicle>
    <vehicle id="250" depart="265.00">
        <route edges="D2C2 C2B2 B2B1"/>
    </vehicle>
    <vehicle id="251" depart="266.00">
        <route edges="C1C2 C2B2 B2A2"/>
    </vehicle>
    <vehicle id="252" depart="268.00">
        <route edges="A2B2 B2B1"/>
    </vehicle>
    <vehicle id="254" depart="269.00">
        <route edges="C3C2 C2D2"/>
    </vehicle>
    <vehicle id="255" depart="270.00">
        <route edges="C2B2 B2B1"/>
    </vehicle>
    <vehicle id="259" depart="273.00">
        <route edges="D2C2 C2B2 B2B3"/>
    </vehicle>
    <vehicle id="260" depart="274.00">
        <route edges="B1B2 B2C2 C2C1"/>
    </vehicle>
    <vehicle id="261" depart="276.00">
        <route edges="B3B2 B2C2 C2C1"/>
    </vehicle>
    <vehicle id="262" depart="276.00">
        <route edges="C1C2 C2B2 B2A2"/>
    </vehicle>
    <vehicle id="265" depart="277.00">
        <route edges="C1C2 C2C3"/>
    </vehicle>
    <vehicle id="266" depart="278.00">
        <route edges="B3B2 B2C2 C2C3"/>
    </vehicle>
    <vehicle id="268" depart="280.00">
        <route edges="D2C2 C2B2 B2A2"/>
    </vehicle>
    <vehicle id="269" depart="283.00">
        <route edges="C1C2 C2B2"/>
    </vehicle>
    <vehicle id="272" depart="286.00">
        <route edges="B1B2 B2A2"/>
    </vehicle>
    <vehicle id="275" depart="288.00">
        <route edges="C1C2 C2B2 B2B3"/>
    </vehicle>
    <vehicle id="276" depart="289.00">
        <route edges="C2B2 B2B1"/>
    </vehicle>
    <vehicle id="278" depart="292.00">
        <route edges="B3B2 B2C2 C2C3"/>
    </vehicle>
    <vehicle id="280" depart="295.00">
        <route edges="C2B2 B2B1"/>
    </vehicle>
    <vehicle id="281" depart="296.00">
        <route edges="C3C2 C2C1"/>
    </vehicle>
    <vehicle id="285" depart="301.00">
        <route edges="B2C2 C2D2"/>
    </vehicle>
    <vehicle id="286" depart="302.00">
        <route edges="B2C2"/>
    </vehicle>
    <vehicle id="287" depart="304.00">
        <route edges="C3C2 C2B2 B2B1"/>
    </vehicle>
    <vehicle id="288" depart="305.00">
        <route edges="A2B2 B2C2 C2C3"/>
    </vehicle>
    <vehicle id="289" depart="306.00">
        <route edges="C1C2 C2B2 B2B3"/>
    </vehicle>
    <vehicle id="290" depart="308.00">
        <route edges="C1C2 C2B2 B2A2"/>
    </vehicle>
    <vehicle id="291" depart="308.00">
        <route edges="C3C2 C2C1"/>
    </vehicle>
    <vehicle id="292" depart="309.00">
        <route edges="A2B2 B2B1"/>
    </vehicle>
    <vehicle id="293" depart="309.00">
        <route edges="C1C2 C2C3"/>
    </vehicle>
    <vehicle id="295" depart="312.00">
        <route edges="A2B2 B2B1"/>
    </vehicle>
    <vehicle id="296" depart="313.00">
        <route edges="C1C2 C2B2 B2A2"/>
    </vehicle>
    <vehicle id="297" depart="314.00">
        <route edges="A2B2 B2C2 C2D2"/>
    </vehicle>
    <vehicle id="298" depart="315.00">
        <route edges="D2C2 C2B2 B2B3"/>
    </vehicle>
    <vehicle id="300" depart="317.00">
        <route edges="D2C2 C2C1"/>
    </vehicle>
    <vehicle id="301" depart="318.00">
        <route edges="B3B2 B2C2 C2C3"/>
    </vehicle>
    <vehicle id="302" depart="319.00">
        <route edges="B2C2 C2D2"/>
    </vehicle>
    <vehicle id="303" depart="320.00">
        <route edges="C1C2 C2C3"/>
    </vehicle>
    <vehicle id="304" depart="321.00">
        <route edges="B1B2 B2C2 C2C1"/>
    </vehicle>
    <vehicle id="306" depart="322.00">
        <route edges="B1B2 B2C2"/>
    </vehicle>
    <vehicle id="309" depart="325.00">
        <route edges="B3B2 B2B1"/>
    </vehicle>
    <vehicle id="310" depart="325.00">
        <route edges="B3B2 B2C2"/>
    </vehicle>
    <vehicle id="313" depart="328.00">
        <route edges="B2C2 C2D2"/>
    </vehicle>
    <vehicle id="314" depart="331.00">
        <route edges="C1C2 C2B2"/>
    </vehicle>
    <vehicle id="316" depart="337.00">
        <route edges="C3C2 C2C1"/>
    </vehicle>
    <vehicle id="317" depart="337.00">
        <route edges="D2C2 C2C1"/>
    </vehicle>
    <vehicle id="319" depart="340.00">
        <route edges="A2B2 B2C2"/>
    </vehicle>
    <vehicle id="320" depart="341.00">
        <route edges="D2C2 C2B2 B2B1"/>
    </vehicle>
    <vehicle id="321" depart="343.00">
        <route edges="C3C2 C2C1"/>
    </vehicle>
    <vehicle id="322" depart="343.00">
        <route edges="D2C2 C2B2 B2B1"/>
    </vehicle>
    <vehicle id="325" depart="345.00">
        <route edges="C1C2 C2B2 B2B1"/>
    </vehicle>
    <vehicle id="326" depart="346.00">
        <route edges="A2B2 B2C2 C2C3"/>
    </vehicle>
    <vehicle id="327" depart="346.00">
        <route edges="B2C2"/>
    </vehicle>
    <vehicle id="328" depart="349.00">
        <route edges="B1B2 B2A2"/>
    </vehicle>
    <vehicle id="329" depart="350.00">
        <route edges="C2B2"/>
    </vehicle>
    <vehicle id="330" depart="350.00">
        <route edges="B3B2 B2B1"/>
    </vehicle>
    <vehicle id="331" depart="351.00">
        <route edges="B2C2"/>
    </vehicle>
    <vehicle id="333" depart="352.00">
        <route edges="C3C2 C2D2"/>
    </vehicle>
    <vehicle id="334" depart="353.00">
        <route edges="A2B2 B2C2 C2C3"/>
    </vehicle>
    <vehicle id="335" depart="354.00">
        <route edges="B3B2 B2C2 C2C1"/>
    </vehicle>
    <vehicle id="336" depart="355.00">
        <route edges="A2B2 B2C2 C2C3"/>
    </vehicle>
    <vehicle id="337" depart="355.00">
        <route edges="C2B2"/>
    </vehicle>
    <vehicle id="341" depart="361.00">
        <route edges="D2C2 C2C3"/>
    </vehicle>
    <vehicle id="342" depart="362.00">
        <route edges="C3C2 C2B2 B2B1"/>
    </vehicle>
    <vehicle id="343" depart="364.00">
        <route edges="C1C2 C2B2 B2B3"/>
    </vehicle>
    <vehicle id="344" depart="365.00">
        <route edges="C3C2 C2C1"/>
    </vehicle>
    <vehicle id="345" depart="366.00">
        <route edges="C1C2 C2B2 B2B1"/>
    </vehicle>
    <vehicle id="346" depart="368.00">
        <route edges="A2B2 B2C2 C2C3"/>
    </vehicle>
    <vehicle id="348" depart="369.00">
        <route edges="D2C2 C2B2 B2B1"/>
    </vehicle>
    <vehicle id="349" depart="369.00">
        <route edges="C2B2 B2B1"/>
    </vehicle>
    <vehicle id="351" depart="372.00">
        <route edges="B3B2 B2B1"/>
    </vehicle>
    <vehicle id="353" depart="373.00">
        <route edges="A2B2 B2C2"/>
    </vehicle>
    <vehicle id="354" depart="373.00">
        <route edges="B2C2 C2D2"/>
    </vehicle>
    <vehicle id="356" depart="374.00">
        <route edges="D2C2 C2B2 B2B1"/>
    </vehicle>
    <vehicle id="358" depart="375.00">
        <route edges="B3B2 B2C2 C2C1"/>
    </vehicle>
    <vehicle id="359" depart="375.00">
        <route edges="A2B2 B2C2 C2C3"/>
    </vehicle>
    <vehicle id="363" depart="380.00">
        <route edges="C3C2 C2B2"/>
    </vehicle>
    <vehicle id="365" depart="382.00">
        <route edges="A2B2 B2C2 C2C3"/>
    </vehicle>
    <vehicle id="366" depart="383.00">
        <route edges="C1C2 C2B2"/>
    </vehicle>
    <vehicle id="368" depart="385.00">
        <route edges="A2B2 B2C2"/>
    </vehicle>
    <vehicle id="370" depart="387.00">
        <route edges="D2C2 C2B2"/>
    </vehicle>
    <vehicle id="371" depart="387.00">
        <route edges="B1B2 B2C2 C2C3"/>
    </vehicle>
    <vehicle id="372" depart="388.00">
        <route edges="C3C2 C2B2 B2B3"/>
    </vehicle>
    <vehicle id="373" depart="388.00">
        <route edges="C2B2"/>
    </vehicle>
    <vehicle id="376" depart="390.00">
        <route edges="C3C2 C2B2 B2B1"/>
    </vehicle>
    <vehicle id="377" depart="391.00">
        <route edges="D2C2 C2C3"/>
    </vehicle>
    <vehicle id="379" depart="393.00">
        <route edges="C3C2 C2D2"/>
    </vehicle>
    <vehicle id="382" depart="396.00">
        <route edges="D2C2 C2C3"/>
    </vehicle>
    <vehicle id="383" depart="396.00">
        <route edges="B3B2 B2B1"/>
    </vehicle>
    <vehicle id="385" depart="397.00">
        <route edges="C1C2 C2B2 B2B1"/>
    </vehicle>
    <vehicle id="386" depart="398.00">
        <route edges="D2C2 C2C1"/>
    </vehicle>
    <vehicle id="388" depart="399.00">
        <route edges="A2B2 B2B1"/>
    </vehicle>
    <vehicle id="390" depart="401.00">
        <route edges="B1B2 B2C2 C2C3"/>
    </vehicle>
    <vehicle id="391" depart="402.00">
        <route edges="B1B2 B2C2"/>
    </vehicle>
    <vehicle id="392" depart="403.00">
        <route edges="B1B2 B2C2 C2C1"/>
    </vehicle>
    <vehicle id="393" depart="404.00">
        <route edges="C3C2 C2B2 B2B3"/>
    </vehicle>
    <vehicle id="394" depart="404.00">
        <route edges="B1B2 B2B3"/>
    </vehicle>
    <vehicle id="395" depart="405.00">
        <route edges="B3B2 B2C2"/>
    </vehicle>
    <vehicle id="396" depart="406.00">
        <route edges="A2B2 B2C2 C2C3"/>
    </vehicle>
    <vehicle id="397" depart="406.00">
        <route edges="C3C2 C2B2 B2B3"/>
    </vehicle>
    <vehicle id="398" depart="408.00">
        <route edges="A2B2 B2C2 C2D2"/>
    </vehicle>
    <vehicle id="399" depart="408.00">
        <route edges="D2C2 C2C3"/>
    </vehicle>
    <vehicle id="400" depart="408.00">
        <route edges="B3B2 B2B1"/>
    </vehicle>
    <vehicle id="401" depart="409.00">
        <route edges="C2B2 B2B1"/>
    </vehicle>
    <vehicle id="402" depart="410.00">
        <route edges="B2C2 C2D2"/>
    </vehicle>
    <vehicle id="403" depart="410.00">
        <route edges="C1C2 C2B2 B2B1"/>
    </vehicle>
    <vehicle id="405" depart="411.00">
        <route edges="D2C2 C2B2"/>
    </vehicle>
    <vehicle id="407" depart="414.00">
        <route edges="D2C2 C2B2"/>
    </vehicle>
    <vehicle id="408" depart="415.00">
        <route edges="C2B2 B2B3"/>
    </vehicle>
    <vehicle id="409" depart="415.00">
        <route edges="D2C2 C2B2 B2B1"/>
    </vehicle>
    <vehicle id="410" depart="416.00">
        <route edges="C1C2 C2C3"/>
    </vehicle>
    <vehicle id="414" depart="419.00">
        <route edges="D2C2 C2B2 B2B1"/>
    </vehicle>
    <vehicle id="416" depart="420.00">
        <route edges="C1C2 C2D2"/>
    </vehicle>
    <vehicle id="418" depart="421.00">
        <route edges="D2C2 C2C3"/>
    </vehicle>
    <vehicle id="419" depart="422.00">
        <route edges="D2C2 C2C1"/>
    </vehicle>
    <vehicle id="420" depart="423.00">
        <route edges="B2C2 C2C1"/>
    </vehicle>
    <vehicle id="422" depart="424.00">
        <route edges="C1C2 C2D2"/>
    </vehicle>
    <vehicle id="423" depart="425.00">
        <route edges="C2B2 B2B1"/>
    </vehicle>
    <vehicle id="424" depart="426.00">
        <route edges="D2C2 C2B2 B2A2"/>
    </vehicle>
    <vehicle id="426" depart="427.00">
        <route edges="B3B2 B2C2 C2C1"/>
    </vehicle>
    <vehicle id="427" depart="428.00">
        <route edges="B3B2 B2C2 C2C3"/>
    </vehicle>
    <vehicle id="428" depart="429.00">
        <route edges="A2B2 B2C2 C2C3"/>
    </vehicle>
    <vehicle id="429" depart="430.00">
        <route edges="B1B2 B2C2"/>
    </vehicle>
    <vehicle id="430" depart="431.00">
        <route edges="C1C2 C2B2"/>
    </vehicle>
    <vehicle id="431" depart="431.00">
        <route edges="D2C2 C2B2 B2B1"/>
    </vehicle>
    <vehicle id="432" depart="431.00">
        <route edges="A2B2 B2B1"/>
    </vehicle>
    <vehicle id="434" depart="433.00">
        <route edges="C1C2 C2C3"/>
    </vehicle>
    <vehicle id="435" depart="433.00">
        <route edges="B2C2"/>
    </vehicle>
    <vehicle id="436" depart="434.00">
        <route edges="A2B2 B2B1"/>
    </vehicle>
    <vehicle id="437" depart="434.00">
        <route edges="C3C2 C2B2 B2B3"/>
    </vehicle>
    <vehicle id="438" depart="435.00">
        <route edges="C1C2 C2B2 B2B1"/>
    </vehicle>
    <vehicle id="439" depart="436.00">
        <route edges="C3C2 C2C1"/>
    </vehicle>
    <vehicle id="441" depart="439.00">
        <route edges="D2C2 C2C1"/>
    </vehicle>
    <vehicle id="442" depart="440.00">
        <route edges="C3C2 C2B2 B2B1"/>
    </vehicle>
    <vehicle id="443" depart="441.00">
        <route edges="B3B2 B2C2 C2D2"/>
    </vehicle>
    <vehicle id="444" depart="443.00">
        <route edges="B3B2 B2C2"/>
    </vehicle>
    <vehicle id="445" depart="445.00">
        <route edges="C1C2 C2C3"/>
    </vehicle>
    <vehicle id="448" depart="447.00">
        <route edges="D2C2 C2B2 B2B3"/>
    </vehicle>
    <vehicle id="449" depart="448.00">
        <route edges="C3C2 C2B2 B2B3"/>
    </vehicle>
    <vehicle id="450" depart="449.00">
        <route edges="C3C2 C2B2 B2B1"/>
    </vehicle>
    <vehicle id="451" depart="450.00">
        <route edges="B1B2 B2C2 C2C3"/>
    </vehicle>
    <vehicle id="453" depart="452.00">
        <route edges="C3C2 C2D2"/>
    </vehicle>
    <vehicle id="454" depart="452.00">
        <route edges="B1B2 B2C2 C2C3"/>
    </vehicle>
    <vehicle id="456" depart="454.00">
        <route edges="C3C2 C2B2"/>
    </vehicle>
    <vehicle id="457" depart="455.00">
        <route edges="D2C2 C2C1"/>
    </vehicle>