<?xml version="1.0" encoding="UTF-8"?>

<!-- generated on 2024-04-22 21:14:02.163131 by randomTrips.py v1_19_0+0000-baa66a0f364
<configuration>
    <net-file value="/Users/syman/Documents/FYP/final.net.xml"/>
    <route-file value="/Users/syman/Documents/FYP/peakfinal.rou.xml"/>
    <period value="0.7"/>
</configuration>
-->

<!-- generated on 2024-04-22 21:14:01 by Eclipse SUMO duarouter Version 1.19.0
<configuration xmlns:xsi="http://www.w3.org/2001/XMLSchema-instance" xsi:noNamespaceSchemaLocation="http://sumo.dlr.de/xsd/duarouterConfiguration.xsd">

    <input>
        <net-file value="/Users/syman/Documents/FYP/final.net.xml"/>
        <route-files value="trips.trips.xml"/>
    </input>

    <output>
        <output-file value="/Users/syman/Documents/FYP/peakfinal.rou.xml"/>
        <alternatives-output value="NUL"/>
    </output>

    <time>
        <begin value="0"/>
        <end value="3600.0"/>
    </time>

    <report>
        <no-warnings value="true"/>
        <ignore-errors value="true"/>
        <no-step-log value="true"/>
    </report>

</configuration>
-->

<routes xmlns:xsi="http://www.w3.org/2001/XMLSchema-instance" xsi:noNamespaceSchemaLocation="http://sumo.dlr.de/xsd/routes_file.xsd">
    <vehicle id="0" depart="0.00">
        <route edges="396241008#2 E0 -23652056#1 -23652056#0"/>
    </vehicle>
    <vehicle id="2" depart="1.40">
        <route edges="4017679#0 4017679#1"/>
    </vehicle>
    <vehicle id="4" depart="2.80">
        <route edges="23652058#0 -23652056#0"/>
    </vehicle>
    <vehicle id="9" depart="6.30">
        <route edges="4017679#1 4017679#2 E0 -23652056#1 -23652056#0"/>
    </vehicle>
    <vehicle id="10" depart="7.00">
        <route edges="4017679#1"/>
    </vehicle>
    <vehicle id="11" depart="7.70">
        <route edges="23652056#1 E1 -238237546#4 -238237546#3"/>
    </vehicle>
    <vehicle id="13" depart="9.10">
        <route edges="-23652058#0"/>
    </vehicle>
    <vehicle id="15" depart="10.50">
        <route edges="4017679#1 4017679#2"/>
    </vehicle>
    <vehicle id="16" depart="11.20">
        <route edges="396241008#0 23652058#0 23652056#1 E1"/>
    </vehicle>
    <vehicle id="20" depart="14.00">
        <route edges="396241020 396241008#0 23652058#0 -23652056#0"/>
    </vehicle>
    <vehicle id="21" depart="14.70">
        <route edges="-4935880#2 E1 23425210#0 23425210#1"/>
    </vehicle>
    <vehicle id="22" depart="15.40">
        <route edges="-23652058#0 396241008#1 396241008#2 -238237546#4"/>
    </vehicle>
    <vehicle id="23" depart="16.10">
        <route edges="-23652058#1 -23652058#0 396241008#1 396241008#2 23425210#0"/>
    </vehicle>
    <vehicle id="25" depart="17.50">
        <route edges="23652056#1 E1 -238237546#4"/>
    </vehicle>
    <vehicle id="32" depart="22.40">
        <route edges="4017679#2 4017679#3"/>
    </vehicle>
    <vehicle id="33" depart="23.10">
        <route edges="-4935880#2 -23652056#1 -23652056#0"/>
    </vehicle>
    <vehicle id="34" depart="23.80">
        <route edges="23652056#0 -23652058#0 396241008#1 396241008#2 23425210#0"/>
    </vehicle>
    <vehicle id="38" depart="26.60">
        <route edges="E0 -23652056#1 23652058#1"/>
    </vehicle>
    <vehicle id="39" depart="27.30">
        <route edges="23425210#0"/>
    </vehicle>
    <vehicle id="40" depart="28.00">
        <route edges="396241008#0 396241008#1 396241008#2 23425210#0"/>
    </vehicle>
    <vehicle id="41" depart="28.70">
        <route edges="396241008#1 396241008#2 E0 4935880#2"/>
    </vehicle>
    <vehicle id="42" depart="29.40">
        <route edges="23652058#0 23652056#1 E1 -238237546#4"/>
    </vehicle>
    <vehicle id="44" depart="30.80">
        <route edges="-23652058#0 396241008#1 396241008#2 E0 -23652056#1 -23652056#0"/>
    </vehicle>
    <vehicle id="45" depart="31.50">
        <route edges="-23652058#1 -23652058#0 396241008#1 396241008#2"/>
    </vehicle>
    <vehicle id="51" depart="35.70">
        <route edges="396241020 396241008#0"/>
    </vehicle>
    <vehicle id="53" depart="37.10">
        <route edges="-23652058#1 -23652058#0 396241008#1 396241008#2 E0 -23652056#1 23652058#1"/>
    </vehicle>
    <vehicle id="57" depart="39.90">
        <route edges="E0 4935880#2"/>
    </vehicle>
    <vehicle id="58" depart="40.60">
        <route edges="23652056#0 -23652058#0 396241008#1 396241008#2"/>
    </vehicle>
    <vehicle id="59" depart="41.30">
        <route edges="396241008#1 396241008#2 -238237546#4 -238237546#3"/>
    </vehicle>
    <vehicle id="64" depart="44.80">
        <route edges="4017679#3 4017679#4"/>
    </vehicle>
    <vehicle id="65" depart="45.50">
        <route edges="23652056#0 -23652058#0 396241008#1 396241008#2 E0 -23652056#1"/>
    </vehicle>
    <vehicle id="72" depart="50.40">
        <route edges="23652058#0 23652056#1 E1 -238237546#4"/>
    </vehicle>
    <vehicle id="74" depart="51.80">
        <route edges="-4935880#2 E1 23425210#0 23425210#1"/>
    </vehicle>
    <vehicle id="76" depart="53.20">
        <route edges="238237546#3 238237546#4"/>
    </vehicle>
    <vehicle id="77" depart="53.90">
        <route edges="-23652058#1 -23652058#0 396241008#1 396241008#2 -238237546#4"/>
    </vehicle>
    <vehicle id="79" depart="55.30">
        <route edges="-4935880#2 E1 -238237546#4"/>
    </vehicle>
    <vehicle id="80" depart="56.00">
        <route edges="-23652058#0 396241008#1 396241008#2"/>
    </vehicle>
    <vehicle id="86" depart="60.20">
        <route edges="238237546#3 238237546#4 4017679#3"/>
    </vehicle>
    <vehicle id="87" depart="60.90">
        <route edges="4017679#1 4017679#2 -238237546#4 -238237546#3"/>
    </vehicle>
    <vehicle id="88" depart="61.60">
        <route edges="-23652058#1 -23652058#0 396241008#1 396241008#2 E0 -23652056#1 23652058#1"/>
    </vehicle>
    <vehicle id="89" depart="62.30">
        <route edges="23652058#0 23652058#1"/>
    </vehicle>
    <vehicle id="90" depart="63.00">
        <route edges="4017679#0 4017679#1"/>
    </vehicle>
    <vehicle id="92" depart="64.40">
        <route edges="23652058#0 23652056#1"/>
    </vehicle>
    <vehicle id="95" depart="66.50">
        <route edges="23652058#0 23652056#1 E1 23425210#0"/>
    </vehicle>
    <vehicle id="97" depart="67.90">
        <route edges="238237546#3 238237546#4 E0 4935880#2"/>
    </vehicle>
    <vehicle id="98" depart="68.60">
        <route edges="396241008#0 396241008#1 396241008#2 E0 -23652056#1"/>
    </vehicle>
    <vehicle id="99" depart="69.30">
        <route edges="E1 4017679#3 4017679#4"/>
    </vehicle>
    <vehicle id="101" depart="70.70">
        <route edges="4017679#2 -238237546#4 -238237546#3"/>
    </vehicle>
    <vehicle id="104" depart="72.80">
        <route edges="23652056#1 E1"/>
    </vehicle>
    <vehicle id="107" depart="74.90">
        <route edges="E1"/>
    </vehicle>
    <vehicle id="112" depart="78.40">
        <route edges="-23652058#0 396241008#1"/>
    </vehicle>
    <vehicle id="113" depart="79.10">
        <route edges="238237546#4 4017679#3 4017679#4"/>
    </vehicle>
    <vehicle id="115" depart="80.50">
        <route edges="-23652058#0 396241008#1 396241008#2 -238237546#4 -238237546#3"/>
    </vehicle>
    <vehicle id="119" depart="83.30">
        <route edges="396241008#1 396241008#2"/>
    </vehicle>
    <vehicle id="121" depart="84.70">
        <route edges="238237546#4 E0"/>
    </vehicle>
    <vehicle id="124" depart="86.80">
        <route edges="396241020 396241008#0 396241008#1 396241008#2 23425210#0 23425210#1"/>
    </vehicle>
    <vehicle id="126" depart="88.20">
        <route edges="-23652058#0 396241008#1 396241008#2 E0 -23652056#1 23652058#1"/>
    </vehicle>
    <vehicle id="127" depart="88.90">
        <route edges="E1"/>
    </vehicle>
    <vehicle id="128" depart="89.60">
        <route edges="-23652058#0 396241008#1 396241008#2 -238237546#4"/>
    </vehicle>
    <vehicle id="131" depart="91.70">
        <route edges="23652056#1 E1 -238237546#4 -238237546#3"/>
    </vehicle>
    <vehicle id="134" depart="93.80">
        <route edges="396241008#2 E0 -23652056#1 -23652056#0"/>
    </vehicle>
    <vehicle id="136" depart="95.20">
        <route edges="396241008#2 E0"/>
    </vehicle>
    <vehicle id="137" depart="95.90">
        <route edges="-23652058#1 -23652058#0"/>
    </vehicle>
    <vehicle id="140" depart="98.00">
        <route edges="4017679#0 4017679#1 4017679#2 -238237546#4"/>
    </vehicle>
    <vehicle id="141" depart="98.70">
        <route edges="396241008#2 23425210#0"/>
    </vehicle>
    <vehicle id="142" depart="99.40">
        <route edges="238237546#4 E0"/>
    </vehicle>
    <vehicle id="143" depart="100.10">
        <route edges="4017679#2 E0 -23652056#1"/>
    </vehicle>
    <vehicle id="144" depart="100.80">
        <route edges="23652058#0 23652056#1 E1 23425210#0"/>
    </vehicle>
    <vehicle id="146" depart="102.20">
        <route edges="396241008#2 23425210#0"/>
    </vehicle>
    <vehicle id="148" depart="103.60">
        <route edges="23652058#0 -23652056#0"/>
    </vehicle>
    <vehicle id="149" depart="104.30">
        <route edges="-23652058#0 396241008#1 396241008#2 E0 4935880#2"/>
    </vehicle>
    <vehicle id="153" depart="107.10">
        <route edges="23652056#0 23652056#1 4935880#2"/>
    </vehicle>
    <vehicle id="154" depart="107.80">
        <route edges="4017679#1 4017679#2 E0 4935880#2"/>
    </vehicle>
    <vehicle id="157" depart="109.90">
        <route edges="4017679#1 4017679#2 E0 4935880#2"/>
    </vehicle>
    <vehicle id="161" depart="112.70">
        <route edges="4017679#2 E0 4935880#2"/>
    </vehicle>
    <vehicle id="163" depart="114.10">
        <route edges="23652056#0 -23652058#0 396241008#1 396241008#2 E0"/>
    </vehicle>
    <vehicle id="164" depart="114.80">
        <route edges="4017679#1 4017679#2 E0 4935880#2"/>
    </vehicle>
    <vehicle id="168" depart="117.60">
        <route edges="-4935880#2 E1 4017679#3 4017679#4"/>
    </vehicle>
    <vehicle id="169" depart="118.30">
        <route edges="238237546#3 238237546#4 23425210#0 23425210#1"/>
    </vehicle>
    <vehicle id="170" depart="119.00">
        <route edges="4017679#1 4017679#2 -238237546#4"/>
    </vehicle>
    <vehicle id="172" depart="120.40">
        <route edges="23652056#0 23652056#1 4935880#2"/>
    </vehicle>
    <vehicle id="173" depart="121.10">
        <route edges="E1 23425210#0"/>
    </vehicle>
    <vehicle id="177" depart="123.90">
        <route edges="E1 -238237546#4 -238237546#3"/>
    </vehicle>
    <vehicle id="178" depart="124.60">
        <route edges="E1 23425210#0"/>
    </vehicle>
    <vehicle id="179" depart="125.30">
        <route edges="-23652058#1 -23652058#0 396241008#1 396241008#2 E0 -23652056#1 23652058#1"/>
    </vehicle>
    <vehicle id="186" depart="130.20">
        <route edges="4017679#0 4017679#1"/>
    </vehicle>
    <vehicle id="188" depart="131.60">
        <route edges="396241008#2 23425210#0 23425210#1"/>
    </vehicle>
    <vehicle id="189" depart="132.30">
        <route edges="23652056#0 23652056#1 E1 4017679#3 4017679#4"/>
    </vehicle>
    <vehicle id="192" depart="134.40">
        <route edges="23652058#0 23652056#1 E1 23425210#0 23425210#1"/>
    </vehicle>
    <vehicle id="199" depart="139.30">
        <route edges="396241008#2 E0 -23652056#1 23652058#1"/>
    </vehicle>
    <vehicle id="201" depart="140.70">
        <route edges="238237546#3 238237546#4 E0 4935880#2"/>
    </vehicle>
    <vehicle id="202" depart="141.40">
        <route edges="4017679#1 4017679#2 -238237546#4 -238237546#3"/>
    </vehicle>
    <vehicle id="205" depart="143.50">
        <route edges="4017679#2"/>
    </vehicle>
    <vehicle id="206" depart="144.20">
        <route edges="396241020 396241008#0 396241008#1 396241008#2 -238237546#4"/>
    </vehicle>
    <vehicle id="207" depart="144.90">
        <route edges="-4935880#2 -23652056#1 -23652056#0"/>
    </vehicle>
    <vehicle id="209" depart="146.30">
        <route edges="4017679#2 E0 -23652056#1"/>
    </vehicle>
    <vehicle id="212" depart="148.40">
        <route edges="238237546#4 23425210#0"/>
    </vehicle>
    <vehicle id="213" depart="149.10">
        <route edges="396241008#2 E0 -23652056#1 -23652056#0"/>
    </vehicle>
    <vehicle id="214" depart="149.80">
        <route edges="4017679#0 4017679#1 4017679#2 4017679#3"/>
    </vehicle>
    <vehicle id="217" depart="151.90">
        <route edges="238237546#4 E0 -23652056#1"/>
    </vehicle>
    <vehicle id="219" depart="153.30">
        <route edges="238237546#3 238237546#4 4017679#3"/>
    </vehicle>
    <vehicle id="220" depart="154.00">
        <route edges="396241020 396241008#0 23652058#0 23652056#1 E1"/>
    </vehicle>
    <vehicle id="221" depart="154.70">
        <route edges="396241008#1 396241008#2 E0"/>
    </vehicle>
    <vehicle id="226" depart="158.20">
        <route edges="238237546#3 238237546#4 23425210#0"/>
    </vehicle>
    <vehicle id="229" depart="160.30">
        <route edges="396241008#2 23425210#0"/>
    </vehicle>
    <vehicle id="230" depart="161.00">
        <route edges="-23652058#0 396241008#1 396241008#2 23425210#0 23425210#1"/>
    </vehicle>
    <vehicle id="231" depart="161.70">
        <route edges="23425210#0 23425210#1"/>
    </vehicle>
    <vehicle id="234" depart="163.80">
        <route edges="396241020 396241008#0 396241008#1 396241008#2 E0 -23652056#1"/>
    </vehicle>
    <vehicle id="236" depart="165.20">
        <route edges="23652058#0 23652056#1 E1 -238237546#4"/>
    </vehicle>
    <vehicle id="239" depart="167.30">
        <route edges="4017679#2 4017679#3"/>
    </vehicle>
    <vehicle id="244" depart="170.80">
        <route edges="396241008#0 396241008#1"/>
    </vehicle>
    <vehicle id="245" depart="171.50">
        <route edges="-4935880#2 E1 -238237546#4"/>
    </vehicle>
    <vehicle id="246" depart="172.20">
        <route edges="238237546#3 238237546#4 E0 -23652056#1 -23652056#0"/>
    </vehicle>
    <vehicle id="248" depart="173.60">
        <route edges="23652058#0 23652056#1 E1 -238237546#4 -238237546#3"/>
    </vehicle>
    <vehicle id="250" depart="175.00">
        <route edges="396241008#2 E0 -23652056#1 -23652056#0"/>
    </vehicle>
    <vehicle id="253" depart="177.10">
        <route edges="-23652058#1 -23652058#0 396241008#1 396241008#2 E0 -23652056#1 23652058#1"/>
    </vehicle>
    <vehicle id="255" depart="178.50">
        <route edges="-4935880#2 E1 23425210#0 23425210#1"/>
    </vehicle>
    <vehicle id="257" depart="179.90">
        <route edges="4017679#0 4017679#1 4017679#2 4017679#3 4017679#4"/>
    </vehicle>
    <vehicle id="266" depart="186.20">
        <route edges="396241008#0 396241008#1 396241008#2 -238237546#4"/>
    </vehicle>
    <vehicle id="267" depart="186.90">
        <route edges="396241020 396241008#0 23652058#0 23652056#1 E1 4017679#3"/>
    </vehicle>
    <vehicle id="271" depart="189.70">
        <route edges="-23652058#1 -23652056#0"/>
    </vehicle>
    <vehicle id="274" depart="191.80">
        <route edges="4017679#0 4017679#1 4017679#2 E0 -23652056#1"/>
    </vehicle>
    <vehicle id="275" depart="192.50">
        <route edges="396241020 396241008#0 396241008#1 396241008#2"/>
    </vehicle>
    <vehicle id="276" depart="193.20">
        <route edges="-23652058#1 23652056#1 E1 4017679#3"/>
    </vehicle>
    <vehicle id="278" depart="194.60">
        <route edges="-23652058#1 23652056#1 E1"/>
    </vehicle>
    <vehicle id="280" depart="196.00">
        <route edges="23652058#0 23652056#1"/>
    </vehicle>
    <vehicle id="282" depart="197.40">
        <route edges="4017679#2 4017679#3 4017679#4"/>
    </vehicle>
    <vehicle id="283" depart="198.10">
        <route edges="-23652058#1 23652056#1 E1"/>
    </vehicle>
    <vehicle id="285" depart="199.50">
        <route edges="396241020 396241008#0 23652058#0 23652058#1"/>
    </vehicle>
    <vehicle id="291" depart="203.70">
        <route edges="4017679#2 E0 -23652056#1"/>
    </vehicle>
    <vehicle id="295" depart="206.50">
        <route edges="4017679#2 -238237546#4 -238237546#3"/>
    </vehicle>
    <vehicle id="296" depart="207.20">
        <route edges="-4935880#2 E1 4017679#3"/>
    </vehicle>
    <vehicle id="297" depart="207.90">
        <route edges="23652056#1 4935880#2"/>
    </vehicle>
    <vehicle id="298" depart="208.60">
        <route edges="396241020 396241008#0 396241008#1 396241008#2 23425210#0"/>
    </vehicle>
    <vehicle id="302" depart="211.40">
        <route edges="396241020 396241008#0 396241008#1 396241008#2"/>
    </vehicle>
    <vehicle id="303" depart="212.10">
        <route edges="238237546#4 4017679#3"/>
    </vehicle>
    <vehicle id="304" depart="212.80">
        <route edges="-23652058#0 396241008#1 396241008#2 -238237546#4"/>
    </vehicle>
    <vehicle id="305" depart="213.50">
        <route edges="396241020 396241008#0 396241008#1 396241008#2 23425210#0 23425210#1"/>
    </vehicle>
    <vehicle id="306" depart="214.20">
        <route edges="396241008#1 396241008#2 E0 -23652056#1 23652058#1"/>
    </vehicle>
    <vehicle id="307" depart="214.90">
        <route edges="396241008#0 23652058#0"/>
    </vehicle>
    <vehicle id="309" depart="216.30">
        <route edges="396241020 396241008#0 396241008#1 396241008#2 23425210#0"/>
    </vehicle>
    <vehicle id="312" depart="218.40">
        <route edges="396241008#0 23652058#0 23652056#1 E1 4017679#3"/>
    </vehicle>
    <vehicle id="313" depart="219.10">
        <route edges="-238237546#4"/>
    </vehicle>
    <vehicle id="317" depart="221.90">
        <route edges="-4935880#2 E1 -238237546#4"/>
    </vehicle>
    <vehicle id="319" depart="223.30">
        <route edges="396241008#0 396241008#1 396241008#2 23425210#0"/>
    </vehicle>
    <vehicle id="324" depart="226.80">
        <route edges="238237546#3 238237546#4 E0 -23652056#1 23652058#1"/>
    </vehicle>
    <vehicle id="328" depart="229.60">
        <route edges="-23652058#0 396241008#1 396241008#2"/>
    </vehicle>
    <vehicle id="329" depart="230.30">
        <route edges="-23652058#0 396241008#1 396241008#2 -238237546#4 -238237546#3"/>
    </vehicle>
    <vehicle id="330" depart="231.00">
        <route edges="396241008#0 396241008#1 396241008#2 23425210#0 23425210#1"/>
    </vehicle>
    <vehicle id="333" depart="233.10">
        <route edges="4017679#1 4017679#2 -238237546#4"/>
    </vehicle>
    <vehicle id="334" depart="233.80">
        <route edges="238237546#4 E0 -23652056#1 23652058#1"/>
    </vehicle>
    <vehicle id="335" depart="234.50">
        <route edges="238237546#3 238237546#4 E0 4935880#2"/>
    </vehicle>
    <vehicle id="336" depart="235.20">
        <route edges="E1 23425210#0 23425210#1"/>
    </vehicle>
    <vehicle id="338" depart="236.60">
        <route edges="4017679#0 4017679#1 4017679#2 E0"/>
    </vehicle>
    <vehicle id="339" depart="237.30">
        <route edges="-4935880#2 E1 -238237546#4"/>
    </vehicle>
    <vehicle id="340" depart="238.00">
        <route edges="396241008#2 -238237546#4 -238237546#3"/>
    </vehicle>
    <vehicle id="342" depart="239.40">
        <route edges="-23652056#1 23652058#1"/>
    </vehicle>
    <vehicle id="343" depart="240.10">
        <route edges="396241008#1 396241008#2 23425210#0 23425210#1"/>
    </vehicle>
    <vehicle id="345" depart="241.50">
        <route edges="396241020 396241008#0 23652058#0 23652058#1"/>
    </vehicle>
    <vehicle id="346" depart="242.20">
        <route edges="396241020 396241008#0 396241008#1 396241008#2 E0"/>
    </vehicle>
    <vehicle id="348" depart="243.60">
        <route edges="396241008#2 E0"/>
    </vehicle>
    <vehicle id="350" depart="245.00">
        <route edges="396241008#2 E0"/>
    </vehicle>
    <vehicle id="351" depart="245.70">
        <route edges="4017679#2 E0 -23652056#1"/>
    </vehicle>
    <vehicle id="354" depart="247.80">
        <route edges="23652056#0 -23652058#0"/>
    </vehicle>
    <vehicle id="357" depart="249.90">
        <route edges="238237546#4 E0 -23652056#1"/>
    </vehicle>
    <vehicle id="358" depart="250.60">
        <route edges="-23652056#1 23652058#1"/>
    </vehicle>
    <vehicle id="359" depart="251.30">
        <route edges="23652056#0 -23652058#0 396241008#1 396241008#2 23425210#0"/>
    </vehicle>
    <vehicle id="363" depart="254.10">
        <route edges="396241020 396241008#0 396241008#1 396241008#2 23425210#0"/>
    </vehicle>
    <vehicle id="367" depart="256.90">
        <route edges="396241008#1 396241008#2"/>
    </vehicle>
    <vehicle id="368" depart="257.60">
        <route edges="238237546#4 E0 -23652056#1"/>
    </vehicle>
    <vehicle id="369" depart="258.30">
        <route edges="23652056#1 E1 23425210#0 23425210#1"/>
    </vehicle>
    <vehicle id="370" depart="259.00">
        <route edges="396241020 396241008#0 396241008#1 396241008#2 E0 4935880#2"/>
    </vehicle>
    <vehicle id="372" depart="260.40">
        <route edges="23652056#0 -23652058#0 396241008#1 396241008#2 E0"/>
    </vehicle>
    <vehicle id="374" depart="261.80">
        <route edges="238237546#3 238237546#4 23425210#0 23425210#1"/>
    </vehicle>
    <vehicle id="375" depart="262.50">
        <route edges="23652056#0 23652056#1 E1"/>
    </vehicle>
    <vehicle id="378" depart="264.60">
        <route edges="396241008#0 23652058#0"/>
    </vehicle>
    <vehicle id="381" depart="266.70">
        <route edges="4017679#0 4017679#1 4017679#2 -238237546#4"/>
    </vehicle>
    <vehicle id="382" depart="267.40">
        <route edges="396241008#0 396241008#1 396241008#2 E0"/>
    </vehicle>
    <vehicle id="384" depart="268.80">
        <route edges="-23652058#1 23652056#1 E1"/>
    </vehicle>
    <vehicle id="385" depart="269.50">
        <route edges="396241008#1 396241008#2 23425210#0"/>
    </vehicle>
    <vehicle id="387" depart="270.90">
        <route edges="396241008#0 396241008#1 396241008#2 E0 -23652056#1"/>
    </vehicle>
    <vehicle id="393" depart="275.10">
        <route edges="E1 23425210#0"/>
    </vehicle>
    <vehicle id="394" depart="275.80">
        <route edges="396241008#0 23652058#0"/>
    </vehicle>
    <vehicle id="399" depart="279.30">
        <route edges="238237546#4 4017679#3 4017679#4"/>
    </vehicle>
    <vehicle id="400" depart="280.00">
        <route edges="23425210#0 23425210#1"/>
    </vehicle>
    <vehicle id="403" depart="282.10">
        <route edges="396241008#0 23652058#0 23652056#1"/>
    </vehicle>
    <vehicle id="404" depart="282.80">
        <route edges="396241008#0"/>
    </vehicle>
    <vehicle id="405" depart="283.50">
        <route edges="238237546#3 238237546#4 23425210#0 23425210#1"/>
    </vehicle>
    <vehicle id="407" depart="284.90">
        <route edges="396241008#1 396241008#2 -238237546#4"/>
    </vehicle>
    <vehicle id="408" depart="285.60">
        <route edges="4017679#1 4017679#2 E0 -23652056#1 -23652056#0"/>
    </vehicle>
    <vehicle id="409" depart="286.30">
        <route edges="4017679#0 4017679#1"/>
    </vehicle>
    <vehicle id="414" depart="289.80">
        <route edges="396241008#1 396241008#2 E0 4935880#2"/>
    </vehicle>
    <vehicle id="416" depart="291.20">
        <route edges="396241008#0 23652058#0 23652058#1"/>
    </vehicle>
    <vehicle id="418" depart="292.60">
        <route edges="396241008#2 -238237546#4 -238237546#3"/>
    </vehicle>
    <vehicle id="422" depart="295.40">
        <route edges="4017679#2 E0 4935880#2"/>
    </vehicle>
    <vehicle id="423" depart="296.10">
        <route edges="23652056#1 E1 23425210#0 23425210#1"/>
    </vehicle>
    <vehicle id="424" depart="296.80">
        <route edges="4017679#0 4017679#1 4017679#2"/>
    </vehicle>
    <vehicle id="426" depart="298.20">
        <route edges="-23652058#0 396241008#1 396241008#2"/>
    </vehicle>
    <vehicle id="428" depart="299.60">
        <route edges="4017679#0 4017679#1 4017679#2 E0 -23652056#1 23652058#1"/>
    </vehicle>
    <vehicle id="429" depart="300.30">
        <route edges="-23652058#1 -23652058#0 396241008#1 396241008#2"/>
    </vehicle>
    <vehicle id="431" depart="301.70">
        <route edges="396241020 396241008#0 396241008#1 396241008#2 E0 4935880#2"/>
    </vehicle>
    <vehicle id="433" depart="303.10">
        <route edges="23652056#0 23652056#1"/>
    </vehicle>
    <vehicle id="435" depart="304.50">
        <route edges="396241008#0 23652058#0 23652056#1 E1 4017679#3"/>
    </vehicle>
    <vehicle id="440" depart="308.00">
        <route edges="23425210#0"/>
    </vehicle>
    <vehicle id="449" depart="314.30">
        <route edges="396241008#1"/>
    </vehicle>
    <vehicle id="450" depart="315.00">
        <route edges="E1 23425210#0 23425210#1"/>
    </vehicle>
    <vehicle id="454" depart="317.80">
        <route edges="-23652058#0 396241008#1"/>
    </vehicle>
    <vehicle id="455" depart="318.50">
        <route edges="238237546#4 E0 4935880#2"/>
    </vehicle>
    <vehicle id="456" depart="319.20">
        <route edges="23652056#0 23652056#1 E1 4017679#3"/>
    </vehicle>
    <vehicle id="458" depart="320.60">
        <route edges="396241008#2"/>
    </vehicle>
    <vehicle id="461" depart="322.70">
        <route edges="396241008#2 E0 4935880#2"/>
    </vehicle>
    <vehicle id="462" depart="323.40">
        <route edges="396241008#2 23425210#0 23425210#1"/>
    </vehicle>
    <vehicle id="464" depart="324.80">
        <route edges="4017679#0 4017679#1 4017679#2 E0 -23652056#1"/>
    </vehicle>
    <vehicle id="467" depart="326.90">
        <route edges="396241008#0 23652058#0 23652056#1 E1"/>
    </vehicle>
    <vehicle id="468" depart="327.60">
        <route edges="396241008#0 396241008#1 396241008#2 E0"/>
    </vehicle>
    <vehicle id="471" depart="329.70">
        <route edges="4017679#1 4017679#2"/>
    </vehicle>
    <vehicle id="476" depart="333.20">
        <route edges="E1 4017679#3"/>
    </vehicle>
    <vehicle id="477" depart="333.90">
        <route edges="23652056#1 E1 4017679#3"/>
    </vehicle>
    <vehicle id="480" depart="336.00">
        <route edges="396241020 396241008#0 396241008#1"/>
    </vehicle>
    <vehicle id="481" depart="336.70">
        <route edges="4017679#2 E0"/>
    </vehicle>
    <vehicle id="482" depart="337.40">
        <route edges="-23652058#1 -23652058#0 396241008#1 396241008#2 -238237546#4"/>
    </vehicle>
    <vehicle id="484" depart="338.80">
        <route edges="396241008#0 396241008#1 396241008#2 E0"/>
    </vehicle>
    <vehicle id="485" depart="339.50">
        <route edges="-4935880#2 -23652056#1"/>
    </vehicle>
    <vehicle id="486" depart="340.20">
        <route edges="4017679#2 E0"/>
    </vehicle>
    <vehicle id="488" depart="341.60">
        <route edges="-23652058#1 -23652058#0 396241008#1 396241008#2 E0"/>
    </vehicle>
    <vehicle id="490" depart="343.00">
        <route edges="-23652058#1 23652056#1 4935880#2"/>
    </vehicle>
    <vehicle id="491" depart="343.70">
        <route edges="-23652058#1 -23652058#0 396241008#1 396241008#2 E0 -23652056#1 23652058#1"/>
    </vehicle>
    <vehicle id="494" depart="345.80">
        <route edges="4017679#0 4017679#1 4017679#2 -238237546#4 -238237546#3"/>
    </vehicle>
    <vehicle id="497" depart="347.90">
        <route edges="E0 -23652056#1 -23652056#0"/>
    </vehicle>
    <vehicle id="501" depart="350.70">
        <route edges="396241008#0 23652058#0 23652056#1 E1"/>
    </vehicle>
    <vehicle id="504" depart="352.80">
        <route edges="4017679#2 E0 -23652056#1 23652058#1"/>
    </vehicle>
    <vehicle id="505" depart="353.50">
        <route edges="396241008#2"/>
    </vehicle>
    <vehicle id="506" depart="354.20">
        <route edges="396241008#1 396241008#2 E0 -23652056#1 -23652056#0"/>
    </vehicle>
    <vehicle id="510" depart="357.00">
        <route edges="-4935880#2 E1 -238237546#4"/>
    </vehicle>
    <vehicle id="516" depart="361.20">
        <route edges="396241008#2 E0 -23652056#1 -23652056#0"/>
    </vehicle>
    <vehicle id="518" depart="362.60">
        <route edges="-4935880#2 E1 23425210#0 23425210#1"/>
    </vehicle>
    <vehicle id="524" depart="366.80">
        <route edges="E0 -23652056#1 -23652056#0"/>
    </vehicle>
    <vehicle id="525" depart="367.50">
        <route edges="4017679#1 4017679#2 E0 4935880#2"/>
    </vehicle>
    <vehicle id="526" depart="368.20">
        <route edges="238237546#4 E0 -23652056#1 23652058#1"/>
    </vehicle>
    <vehicle id="530" depart="371.00">
        <route edges="E0 -23652056#1"/>
    </vehicle>
    <vehicle id="531" depart="371.70">
        <route edges="-23652058#0 396241008#1"/>
    </vehicle>
    <vehicle id="532" depart="372.40">
        <route edges="-23652058#0 396241008#1 396241008#2 23425210#0"/>
    </vehicle>
    <vehicle id="534" depart="373.80">
        <route edges="23652056#0 23652056#1 E1"/>
    </vehicle>
    <vehicle id="535" depart="374.50">
        <route edges="396241008#0 23652058#0 23652058#1"/>
    </vehicle>
    <vehicle id="537" depart="375.90">
        <route edges="396241020 396241008#0 23652058#0 23652056#1 E1 4017679#3 4017679#4"/>
    </vehicle>
    <vehicle id="539" depart="377.30">
        <route edges="4017679#0 4017679#1 4017679#2 -238237546#4"/>
    </vehicle>
    <vehicle id="544" depart="380.80">
        <route edges="23652056#1 E1 -238237546#4 -238237546#3"/>
    </vehicle>
    <vehicle id="545" depart="381.50">
        <route edges="E0 -23652056#1"/>
    </vehicle>
    <vehicle id="546" depart="382.20">
        <route edges="4017679#2 E0 -23652056#1"/>
    </vehicle>
    <vehicle id="550" depart="385.00">
        <route edges="23652056#0 -23652058#0"/>
    </vehicle>
    <vehicle id="552" depart="386.40">
        <route edges="4017679#0 4017679#1 4017679#2 E0 4935880#2"/>
    </vehicle>
    <vehicle id="555" depart="388.50">
        <route edges="396241008#1 396241008#2 -238237546#4"/>
    </vehicle>
    <vehicle id="556" depart="389.20">
        <route edges="396241008#2 -238237546#4"/>
    </vehicle>