<net xmlns:xsi="http://www.w3.org/2001/XMLSchema-instance" version="1.16" junctionCornerDetail="5" lefthand="true" limitTurnSpeed="5.50" xsi:noNamespaceSchemaLocation="http://sumo.dlr.de/xsd/net_file.xsd">

    <location netOffset="0.00,0.00" convBoundary="100.00,100.00,300.00,300.00" origBoundary="0.00,0.00,400.00,400.00" projParameter="!" />

    <edge id=":C2_0" function="internal">
        <lane id=":C2_0_0" index="0" speed="6.51" length="9.03" shape="198.40,192.80 198.05,195.25 197.00,197.00 195.25,198.05 192.80,198.40" />
    </edge>
    <edge id=":C2_1" function="internal">
        <lane id=":C2_1_0" index="0" speed="13.89" length="14.40" shape="198.40,192.80 198.40,207.20" />
    </edge>
    <edge id=":C2_2" function="internal">
        <lane id=":C2_2_0" index="0" speed="8.00" length="4.07" shape="198.40,192.80 198.95,196.65 199.04,196.80" />
    </edge>
    <edge id=":C2_12" function="internal">
        <lane id=":C2_12_0" index="0" speed="8.00" length="10.13" shape="199.04,196.80 200.60,199.40 203.35,201.05 207.20,201.60" />
    </edge>
    <edge id=":C2_3" function="internal">
        <lane id=":C2_3_0" index="0" speed="6.51" length="9.03" shape="207.20,198.40 204.75,198.05 203.00,197.00 201.95,195.25 201.60,192.80" />
    </edge>
    <edge id=":C2_4" function="internal">
        <lane id=":C2_4_0" index="0" speed="13.89" length="14.40" shape="207.20,198.40 192.80,198.40" />
    </edge>
    <edge id=":C2_5" function="internal">
        <lane id=":C2_5_0" index="0" speed="8.00" length="4.07" shape="207.20,198.40 203.35,198.95 203.20,199.04" />
    </edge>
    <edge id=":C2_13" function="internal">
        <lane id=":C2_13_0" index="0" speed="8.00" length="10.13" shape="203.20,199.04 200.60,200.60 198.95,203.35 198.40,207.20" />
    </edge>
    <edge id=":C2_6" function="internal">
        <lane id=":C2_6_0" index="0" speed="6.51" length="9.03" shape="201.60,207.20 201.95,204.75 203.00,203.00 204.75,201.95 207.20,201.60" />
    </edge>
    <edge id=":C2_7" function="internal">
        <lane id=":C2_7_0" index="0" speed="13.89" length="14.40" shape="201.60,207.20 201.60,192.80" />
    </edge>
    <edge id=":C2_8" function="internal">
        <lane id=":C2_8_0" index="0" speed="8.00" length="4.07" shape="201.60,207.20 201.05,203.35 200.96,203.20" />
    </edge>
    <edge id=":C2_14" function="internal">
        <lane id=":C2_14_0" index="0" speed="8.00" length="10.13" shape="200.96,203.20 199.40,200.60 196.65,198.95 192.80,198.40" />
    </edge>
    <edge id=":C2_9" function="internal">
        <lane id=":C2_9_0" index="0" speed="6.51" length="9.03" shape="192.80,201.60 195.25,201.95 197.00,203.00 198.05,204.75 198.40,207.20" />
    </edge>
    <edge id=":C2_10" function="internal">
        <lane id=":C2_10_0" index="0" speed="13.89" length="14.40" shape="192.80,201.60 207.20,201.60" />
    </edge>
    <edge id=":C2_11" function="internal">
        <lane id=":C2_11_0" index="0" speed="8.00" length="4.07" shape="192.80,201.60 196.65,201.05 196.80,200.96" />
    </edge>
    <edge id=":C2_15" function="internal">
        <lane id=":C2_15_0" index="0" speed="8.00" length="10.13" shape="196.80,200.96 199.40,199.40 201.05,196.65 201.60,192.80" />
    </edge>

    <edge id="B2C2" from="B2" to="C2" priority="-1">
        <lane id="B2C2_0" index="0" speed="13.89" length="92.80" shape="100.00,201.60 192.80,201.60" />
    </edge>
    <edge id="C1C2" from="C1" to="C2" priority="-1">
        <lane id="C1C2_0" index="0" speed="13.89" length="92.80" shape="198.40,100.00 198.40,192.80" />
    </edge>
    <edge id="C2B2" from="C2" to="B2" priority="-1">
        <lane id="C2B2_0" index="0" speed="13.89" length="92.80" shape="192.80,198.40 100.00,198.40" />
    </edge>
    <edge id="C2C1" from="C2" to="C1" priority="-1">
        <lane id="C2C1_0" index="0" speed="13.89" length="92.80" shape="201.60,192.80 201.60,100.00" />
    </edge>
    <edge id="C2C3" from="C2" to="C3" priority="-1">
        <lane id="C2C3_0" index="0" speed="13.89" length="92.80" shape="198.40,207.20 198.40,300.00" />
    </edge>
    <edge id="C2D2" from="C2" to="D2" priority="-1">
        <lane id="C2D2_0" index="0" speed="13.89" length="92.80" shape="207.20,201.60 300.00,201.60" />
    </edge>
    <edge id="C3C2" from="C3" to="C2" priority="-1">
        <lane id="C3C2_0" index="0" speed="13.89" length="92.80" shape="201.60,300.00 201.60,207.20" />
    </edge>
    <edge id="D2C2" from="D2" to="C2" priority="-1">
        <lane id="D2C2_0" index="0" speed="13.89" length="92.80" shape="300.00,198.40 207.20,198.40" />
    </edge>

    <tlLogic id="C2" type="static" programID="0" offset="0">
        <phase duration="53" state="GGgrrrGGgrrr" />
        <phase duration="3" state="yyyrrryyyrrr" />
        <phase duration="39" state="rrrGGgrrrGGg" />
        <phase duration="3" state="rrryyyrrryyy" />
    </tlLogic>

    <junction id="B2" type="dead_end" x="100.00" y="200.00" incLanes="C2B2_0" intLanes="" shape="100.00,200.00 100.00,196.80 100.00,200.00" />
    <junction id="C1" type="dead_end" x="200.00" y="100.00" incLanes="C2C1_0" intLanes="" shape="200.00,100.00 203.20,100.00 200.00,100.00" />
    <junction id="C2" type="traffic_light" x="200.00" y="200.00" incLanes="C1C2_0 D2C2_0 C3C2_0 B2C2_0" intLanes=":C2_0_0 :C2_1_0 :C2_12_0 :C2_3_0 :C2_4_0 :C2_13_0 :C2_6_0 :C2_7_0 :C2_14_0 :C2_9_0 :C2_10_0 :C2_15_0" shape="196.80,192.80 203.20,192.80 203.64,195.02 204.20,195.80 204.98,196.36 205.98,196.69 207.20,196.80 207.20,203.20 204.98,203.64 204.20,204.20 203.64,204.98 203.31,205.98 203.20,207.20 196.80,207.20 196.36,204.98 195.80,204.20 195.02,203.64 194.02,203.31 192.80,203.20 192.80,196.80 195.02,196.36 195.80,195.80 196.36,195.02 196.69,194.02">
        <request index="0" response="000000000000" foes="000100010000" cont="0" />
        <request index="1" response="100000100000" foes="111100110000" cont="0" />
        <request index="2" response="100111100000" foes="110111110000" cont="1" />
        <request index="3" response="000010000000" foes="100010000000" cont="0" />
        <request index="4" response="000110000111" foes="100110000111" cont="0" />
        <request index="5" response="011110000110" foes="111110000110" cont="1" />
        <request index="6" response="000000000000" foes="010000000100" cont="0" />
        <request index="7" response="100000100000" foes="110000111100" cont="0" />
        <request index="8" response="100000100011" foes="110000110111" cont="1" />
        <request index="9" response="000000000010" foes="000000100010" cont="0" />
        <request index="10" response="000111000110" foes="000111100110" cont="0" />
        <request index="11" response="000110111110" foes="000110111110" cont="1" />
    </junction>
    <junction id="C3" type="dead_end" x="200.00" y="300.00" incLanes="C2C3_0" intLanes="" shape="200.00,300.00 196.80,300.00 200.00,300.00" />
    <junction id="D2" type="dead_end" x="300.00" y="200.00" incLanes="C2D2_0" intLanes="" shape="300.00,200.00 300.00,203.20 300.00,200.00" />

    <junction id=":C2_12_0" type="internal" x="199.04" y="196.80" incLanes=":C2_2_0 C3C2_0" intLanes=":C2_4_0 :C2_5_0 :C2_6_0 :C2_7_0 :C2_10_0 :C2_11_0" />
    <junction id=":C2_13_0" type="internal" x="203.20" y="199.04" incLanes=":C2_5_0 B2C2_0" intLanes=":C2_1_0 :C2_2_0 :C2_7_0 :C2_8_0 :C2_9_0 :C2_10_0" />
    <junction id=":C2_14_0" type="internal" x="200.96" y="203.20" incLanes=":C2_8_0 C1C2_0" intLanes=":C2_0_0 :C2_1_0 :C2_4_0 :C2_5_0 :C2_10_0 :C2_11_0" />
    <junction id=":C2_15_0" type="internal" x="196.80" y="200.96" incLanes=":C2_11_0 D2C2_0" intLanes=":C2_1_0 :C2_2_0 :C2_3_0 :C2_4_0 :C2_7_0 :C2_8_0" />

    <connection from="B2C2" to="C2C3" fromLane="0" toLane="0" via=":C2_9_0" tl="C2" linkIndex="9" dir="l" state="o" />
    <connection from="B2C2" to="C2D2" fromLane="0" toLane="0" via=":C2_10_0" tl="C2" linkIndex="10" dir="s" state="o" />
    <connection from="B2C2" to="C2C1" fromLane="0" toLane="0" via=":C2_11_0" tl="C2" linkIndex="11" dir="r" state="o" />
    <connection from="C1C2" to="C2B2" fromLane="0" toLane="0" via=":C2_0_0" tl="C2" linkIndex="0" dir="l" state="O" />
    <connection from="C1C2" to="C2C3" fromLane="0" toLane="0" via=":C2_1_0" tl="C2" linkIndex="1" dir="s" state="O" />
    <connection from="C1C2" to="C2D2" fromLane="0" toLane="0" via=":C2_2_0" tl="C2" linkIndex="2" dir="r" state="o" />
    <connection from="C3C2" to="C2D2" fromLane="0" toLane="0" via=":C2_6_0" tl="C2" linkIndex="6" dir="l" state="O" />
    <connection from="C3C2" to="C2C1" fromLane="0" toLane="0" via=":C2_7_0" tl="C2" linkIndex="7" dir="s" state="O" />
    <connection from="C3C2" to="C2B2" fromLane="0" toLane="0" via=":C2_8_0" tl="C2" linkIndex="8" dir="r" state="o" />
    <connection from="D2C2" to="C2C1" fromLane="0" toLane="0" via=":C2_3_0" tl="C2" linkIndex="3" dir="l" state="o" />
    <connection from="D2C2" to="C2B2" fromLane="0" toLane="0" via=":C2_4_0" tl="C2" linkIndex="4" dir="s" state="o" />
    <connection from="D2C2" to="C2C3" fromLane="0" toLane="0" via=":C2_5_0" tl="C2" linkIndex="5" dir="r" state="o" />

    <connection from=":C2_0" to="C2B2" fromLane="0" toLane="0" dir="l" state="M" />
    <connection from=":C2_1" to="C2C3" fromLane="0" toLane="0" dir="s" state="M" />
    <connection from=":C2_2" to="C2D2" fromLane="0" toLane="0" via=":C2_12_0" dir="r" state="m" />
    <connection from=":C2_12" to="C2D2" fromLane="0" toLane="0" dir="r" state="M" />
    <connection from=":C2_3" to="C2C1" fromLane="0" toLane="0" dir="l" state="M" />
    <connection from=":C2_4" to="C2B2" fromLane="0" toLane="0" dir="s" state="M" />
    <connection from=":C2_5" to="C2C3" fromLane="0" toLane="0" via=":C2_13_0" dir="r" state="m" />
    <connection from=":C2_13" to="C2C3" fromLane="0" toLane="0" dir="r" state="M" />
    <connection from=":C2_6" to="C2D2" fromLane="0" toLane="0" dir="l" state="M" />
    <connection from=":C2_7" to="C2C1" fromLane="0" toLane="0" dir="s" state="M" />
    <connection from=":C2_8" to="C2B2" fromLane="0" toLane="0" via=":C2_14_0" dir="r" state="m" />
    <connection from=":C2_14" to="C2B2" fromLane="0" toLane="0" dir="r" state="M" />
    <connection from=":C2_9" to="C2C3" fromLane="0" toLane="0" dir="l" state="M" />
    <connection from=":C2_10" to="C2D2" fromLane="0" toLane="0" dir="s" state="M" />
    <connection from=":C2_11" to="C2C1" fromLane="0" toLane="0" via=":C2_15_0" dir="r" state="m" />
    <connection from=":C2_15" to="C2C1" fromLane="0" toLane="0" dir="r" state="M" />

</net>