<net xmlns:xsi="http://www.w3.org/2001/XMLSchema-instance" version="1.16" junctionCornerDetail="5" lefthand="true" limitTurnSpeed="5.50" xsi:noNamespaceSchemaLocation="http://sumo.dlr.de/xsd/net_file.xsd">

    <location netOffset="0.00,0.00" convBoundary="0.00,100.00,300.00,300.00" origBoundary="0.00,0.00,400.00,400.00" projParameter="!" />

    <edge id=":B2_0" function="internal">
        <lane id=":B2_0_0" index="0" speed="6.51" length="9.03" shape="98.40,186.40 98.05,188.85 97.00,190.60 95.25,191.65 92.80,192.00" />
    </edge>
    <edge id=":B2_1" function="internal">
        <lane id=":B2_1_0" index="0" speed="13.89" length="27.20" shape="98.40,186.40 98.40,213.60" />
    </edge>
    <edge id=":B2_2" function="internal">
        <lane id=":B2_2_0" index="0" speed="9.71" length="8.47" shape="98.40,186.40 99.16,192.14 100.00,194.69" />
    </edge>
    <edge id=":B2_13" function="internal">
        <lane id=":B2_13_0" index="0" speed="9.71" length="12.92" shape="100.00,194.69 101.15,198.15 103.97,202.88 107.20,204.80" />
    </edge>
    <edge id=":B2_3" function="internal">
        <lane id=":B2_3_0" index="0" speed="6.51" length="9.03" shape="107.20,192.00 104.75,191.65 103.00,190.60 101.95,188.85 101.60,186.40" />
    </edge>
    <edge id=":B2_4" function="internal">
        <lane id=":B2_4_0" index="0" speed="13.89" length="14.40" shape="107.20,192.00 92.80,192.00" />
        <lane id=":B2_4_1" index="1" speed="13.89" length="14.40" shape="107.20,195.20 92.80,195.20" />
    </edge>
    <edge id=":B2_6" function="internal">
        <lane id=":B2_6_0" index="0" speed="9.32" length="7.76" shape="107.20,198.40 103.35,199.35 100.72,202.08" />
    </edge>
    <edge id=":B2_14" function="internal">
        <lane id=":B2_14_0" index="0" speed="9.32" length="11.87" shape="100.72,202.08 100.60,202.20 98.95,206.95 98.40,213.60" />
    </edge>
    <edge id=":B2_7" function="internal">
        <lane id=":B2_7_0" index="0" speed="6.51" length="9.03" shape="101.60,213.60 101.95,211.15 103.00,209.40 104.75,208.35 107.20,208.00" />
    </edge>
    <edge id=":B2_8" function="internal">
        <lane id=":B2_8_0" index="0" speed="13.89" length="27.20" shape="101.60,213.60 101.60,186.40" />
    </edge>
    <edge id=":B2_9" function="internal">
        <lane id=":B2_9_0" index="0" speed="9.71" length="8.47" shape="101.60,213.60 100.84,207.86 100.00,205.31" />
    </edge>
    <edge id=":B2_15" function="internal">
        <lane id=":B2_15_0" index="0" speed="9.71" length="12.92" shape="100.00,205.31 98.85,201.85 96.03,197.12 92.80,195.20" />
    </edge>
    <edge id=":B2_10" function="internal">
        <lane id=":B2_10_0" index="0" speed="13.89" length="14.40" shape="92.80,208.00 107.20,208.00" />
        <lane id=":B2_10_1" index="1" speed="13.89" length="14.40" shape="92.80,204.80 107.20,204.80" />
    </edge>
    <edge id=":B2_12" function="internal">
        <lane id=":B2_12_0" index="0" speed="9.32" length="7.76" shape="92.80,201.60 96.65,200.65 99.28,197.92" />
    </edge>
    <edge id=":B2_16" function="internal">
        <lane id=":B2_16_0" index="0" speed="9.32" length="11.87" shape="99.28,197.92 99.40,197.80 101.05,193.05 101.60,186.40" />
    </edge>
    <edge id=":C2_0" function="internal">
        <lane id=":C2_0_0" index="0" speed="6.51" length="9.03" shape="198.40,186.40 198.05,188.85 197.00,190.60 195.25,191.65 192.80,192.00" />
    </edge>
    <edge id=":C2_1" function="internal">
        <lane id=":C2_1_0" index="0" speed="13.89" length="27.20" shape="198.40,186.40 198.40,213.60" />
    </edge>
    <edge id=":C2_2" function="internal">
        <lane id=":C2_2_0" index="0" speed="9.32" length="7.05" shape="198.40,186.40 198.95,193.05 199.08,193.41" />
    </edge>
    <edge id=":C2_14" function="internal">
        <lane id=":C2_14_0" index="0" speed="9.32" length="12.57" shape="199.08,193.41 200.60,197.80 203.35,200.65 207.20,201.60" />
    </edge>
    <edge id=":C2_3" function="internal">
        <lane id=":C2_3_0" index="0" speed="6.51" length="9.03" shape="207.20,192.00 204.75,191.65 203.00,190.60 201.95,188.85 201.60,186.40" />
    </edge>
    <edge id=":C2_4" function="internal">
        <lane id=":C2_4_0" index="0" speed="13.89" length="14.40" shape="207.20,192.00 192.80,192.00" />
        <lane id=":C2_4_1" index="1" speed="13.89" length="14.40" shape="207.20,195.20 192.80,195.20" />
    </edge>
    <edge id=":C2_6" function="internal">
        <lane id=":C2_6_0" index="0" speed="9.32" length="3.97" shape="207.20,198.40 203.35,199.35" />
    </edge>
    <edge id=":C2_15" function="internal">
        <lane id=":C2_15_0" index="0" speed="9.32" length="15.66" shape="203.35,199.35 200.60,202.20 198.95,206.95 198.40,213.60" />
    </edge>
    <edge id=":C2_7" function="internal">
        <lane id=":C2_7_0" index="0" speed="7.33" length="11.73" shape="201.60,213.60 201.95,209.75 203.00,207.00 204.75,205.35 207.20,204.80" />
    </edge>
    <edge id=":C2_8" function="internal">
        <lane id=":C2_8_0" index="0" speed="13.89" length="27.20" shape="201.60,213.60 201.60,186.40" />
    </edge>
    <edge id=":C2_9" function="internal">
        <lane id=":C2_9_0" index="0" speed="9.94" length="8.55" shape="201.60,213.60 201.05,205.55 200.92,205.09" />
    </edge>
    <edge id=":C2_16" function="internal">
        <lane id=":C2_16_0" index="0" speed="9.94" length="13.93" shape="200.92,205.09 199.40,199.80 196.65,196.35 192.80,195.20" />
    </edge>
    <edge id=":C2_10" function="internal">
        <lane id=":C2_10_0" index="0" speed="6.51" length="9.03" shape="192.80,208.00 195.25,208.35 197.00,209.40 198.05,211.15 198.40,213.60" />
    </edge>
    <edge id=":C2_11" function="internal">
        <lane id=":C2_11_0" index="0" speed="13.89" length="14.86" shape="192.80,208.00 197.12,207.50 200.00,206.40 202.88,205.30 207.20,204.80" />
        <lane id=":C2_11_1" index="1" speed="13.89" length="14.86" shape="192.80,204.80 197.12,204.30 200.00,203.20 202.88,202.10 207.20,201.60" />
    </edge>
    <edge id=":C2_13" function="internal">
        <lane id=":C2_13_0" index="0" speed="9.32" length="7.76" shape="192.80,201.60 196.65,200.65 199.28,197.92" />
    </edge>
    <edge id=":C2_17" function="internal">
        <lane id=":C2_17_0" index="0" speed="9.32" length="11.87" shape="199.28,197.92 199.40,197.80 201.05,193.05 201.60,186.40" />
    </edge>

    <edge id="A2B2" from="A2" to="B2" priority="-1">
        <lane id="A2B2_0" index="0" speed="13.89" length="92.80" shape="0.00,208.00 92.80,208.00" />
        <lane id="A2B2_1" index="1" speed="13.89" length="92.80" shape="0.00,204.80 92.80,204.80" />
        <lane id="A2B2_2" index="2" speed="13.89" length="92.80" shape="0.00,201.60 92.80,201.60" />
    </edge>
    <edge id="B1B2" from="B1" to="B2" priority="-1">
        <lane id="B1B2_0" index="0" speed="13.89" length="86.40" shape="98.40,100.00 98.40,186.40" />
    </edge>
    <edge id="B2A2" from="B2" to="A2" priority="-1">
        <lane id="B2A2_0" index="0" speed="13.89" length="92.80" shape="92.80,192.00 0.00,192.00" />
        <lane id="B2A2_1" index="1" speed="13.89" length="92.80" shape="92.80,195.20 0.00,195.20" />
        <lane id="B2A2_2" index="2" speed="13.89" length="92.80" shape="92.80,198.40 0.00,198.40" />
    </edge>
    <edge id="B2B1" from="B2" to="B1" priority="-1">
        <lane id="B2B1_0" index="0" speed="13.89" length="86.40" shape="101.60,186.40 101.60,100.00" />
    </edge>
    <edge id="B2B3" from="B2" to="B3" priority="-1">
        <lane id="B2B3_0" index="0" speed="13.89" length="86.40" shape="98.40,213.60 98.40,300.00" />
    </edge>
    <edge id="B2C2" from="B2" to="C2" priority="-1">
        <lane id="B2C2_0" index="0" speed="13.89" length="85.60" shape="107.20,208.00 192.80,208.00" />
        <lane id="B2C2_1" index="1" speed="13.89" length="85.60" shape="107.20,204.80 192.80,204.80" />
        <lane id="B2C2_2" index="2" speed="13.89" length="85.60" shape="107.20,201.60 192.80,201.60" />
    </edge>
    <edge id="B3B2" from="B3" to="B2" priority="-1">
        <lane id="B3B2_0" index="0" speed="13.89" length="86.40" shape="101.60,300.00 101.60,213.60" />
    </edge>
    <edge id="C1C2" from="C1" to="C2" priority="-1">
        <lane id="C1C2_0" index="0" speed="13.89" length="86.40" shape="198.40,100.00 198.40,186.40" />
    </edge>
    <edge id="C2B2" from="C2" to="B2" priority="-1">
        <lane id="C2B2_0" index="0" speed="13.89" length="85.60" shape="192.80,192.00 107.20,192.00" />
        <lane id="C2B2_1" index="1" speed="13.89" length="85.60" shape="192.80,195.20 107.20,195.20" />
        <lane id="C2B2_2" index="2" speed="13.89" length="85.60" shape="192.80,198.40 107.20,198.40" />
    </edge>
    <edge id="C2C1" from="C2" to="C1" priority="-1">
        <lane id="C2C1_0" index="0" speed="13.89" length="86.40" shape="201.60,186.40 201.60,100.00" />
    </edge>
    <edge id="C2C3" from="C2" to="C3" priority="-1">
        <lane id="C2C3_0" index="0" speed="13.89" length="86.40" shape="198.40,213.60 198.40,300.00" />
    </edge>
    <edge id="C2D2" from="C2" to="D2" priority="-1">
        <lane id="C2D2_0" index="0" speed="13.89" length="92.80" shape="207.20,204.80 300.00,204.80" />
        <lane id="C2D2_1" index="1" speed="13.89" length="92.80" shape="207.20,201.60 300.00,201.60" />
    </edge>
    <edge id="C3C2" from="C3" to="C2" priority="-1">
        <lane id="C3C2_0" index="0" speed="13.89" length="86.40" shape="201.60,300.00 201.60,213.60" />
    </edge>
    <edge id="D2C2" from="D2" to="C2" priority="-1">
        <lane id="D2C2_0" index="0" speed="13.89" length="92.80" shape="300.00,192.00 207.20,192.00" />
        <lane id="D2C2_1" index="1" speed="13.89" length="92.80" shape="300.00,195.20 207.20,195.20" />
        <lane id="D2C2_2" index="2" speed="13.89" length="92.80" shape="300.00,198.40 207.20,198.40" />
    </edge>

    <tlLogic id="B2" type="static" programID="0" offset="0">
        <phase duration="53" state="rrrGGGGrrrGGGG" />
        <phase duration="3" state="rrryyyyrrryyyy" />
        <phase duration="44" state="GGGrrrrGGGrrrr" />
        <phase duration="3" state="yyyrrrryyyrrrr" />
    </tlLogic>
    <tlLogic id="C2" type="static" programID="0" offset="0">
        <phase duration="56" state="rrrGGGGrrrGGGG" />
        <phase duration="3" state="rrryyyyrrryyyy" />
        <phase duration="49" state="GGGrrrrGGGrrrr" />
        <phase duration="3" state="yyyrrrryyyrrrr" />
    </tlLogic>

    <junction id="A2" type="dead_end" x="0.00" y="200.00" incLanes="B2A2_0 B2A2_1 B2A2_2" intLanes="" shape="0.00,200.00 0.00,190.40 0.00,200.00" />
    <junction id="B1" type="dead_end" x="100.00" y="100.00" incLanes="B2B1_0" intLanes="" shape="100.00,100.00 103.20,100.00 100.00,100.00" />
    <junction id="B2" type="traffic_light" x="100.00" y="200.00" incLanes="B1B2_0 C2B2_0 C2B2_1 C2B2_2 B3B2_0 A2B2_0 A2B2_1 A2B2_2" intLanes=":B2_0_0 :B2_1_0 :B2_13_0 :B2_3_0 :B2_4_0 :B2_4_1 :B2_14_0 :B2_7_0 :B2_8_0 :B2_15_0 :B2_10_0 :B2_10_1 :B2_16_0" shape="96.80,186.40 103.20,186.40 103.64,188.62 104.20,189.40 104.98,189.96 105.98,190.29 107.20,190.40 107.20,209.60 104.98,210.04 104.20,210.60 103.64,211.38 103.31,212.38 103.20,213.60 96.80,213.60 96.36,211.38 95.80,210.60 95.02,210.04 94.02,209.71 92.80,209.60 92.80,190.40 95.02,189.96 95.80,189.40 96.36,188.62 96.69,187.62">
        <request index="0" response="0000000110000" foes="0000000110000" cont="0" />
        <request index="1" response="1110001110000" foes="1111001110000" cont="0" />
        <request index="2" response="1110101110000" foes="1110101110000" cont="1" />
        <request index="3" response="0000000000000" foes="1000100000000" cont="0" />
        <request index="4" response="0001000000100" foes="1001100000111" cont="0" />
        <request index="5" response="0001000000100" foes="1001100000111" cont="0" />
        <request index="6" response="0111000000100" foes="0111100000110" cont="1" />
        <request index="7" response="0110000000000" foes="0110000000000" cont="0" />
        <request index="8" response="1110001111000" foes="1110001111100" cont="0" />
        <request index="9" response="1110001110010" foes="1110001110010" cont="1" />
        <request index="10" response="0001000000100" foes="0001111000110" cont="0" />
        <request index="11" response="0001000000100" foes="0001111000110" cont="0" />
        <request index="12" response="0001000111100" foes="0001100111110" cont="1" />
    </junction>
    <junction id="B3" type="dead_end" x="100.00" y="300.00" incLanes="B2B3_0" intLanes="" shape="100.00,300.00 96.80,300.00 100.00,300.00" />
    <junction id="C1" type="dead_end" x="200.00" y="100.00" incLanes="C2C1_0" intLanes="" shape="200.00,100.00 203.20,100.00 200.00,100.00" />
    <junction id="C2" type="traffic_light" x="200.00" y="200.00" incLanes="C1C2_0 D2C2_0 D2C2_1 D2C2_2 C3C2_0 B2C2_0 B2C2_1 B2C2_2" intLanes=":C2_0_0 :C2_1_0 :C2_14_0 :C2_3_0 :C2_4_0 :C2_4_1 :C2_15_0 :C2_7_0 :C2_8_0 :C2_16_0 :C2_10_0 :C2_11_0 :C2_11_1 :C2_17_0" shape="196.80,186.40 203.20,186.40 203.64,188.62 204.20,189.40 204.98,189.96 205.98,190.29 207.20,190.40 207.20,206.40 204.98,207.20 204.20,208.20 203.64,209.60 203.31,211.40 203.20,213.60 196.80,213.60 196.36,211.38 195.80,210.60 195.02,210.04 194.02,209.71 192.80,209.60 192.80,190.40 195.02,189.96 195.80,189.40 196.36,188.62 196.69,187.62">
        <request index="0" response="00000000110000" foes="00000000110000" cont="0" />
        <request index="1" response="11110001110000" foes="11111001110000" cont="0" />
        <request index="2" response="11101101110000" foes="11101101110000" cont="1" />
        <request index="3" response="00000000000000" foes="10000100000000" cont="0" />
        <request index="4" response="00001000000100" foes="10001100000111" cont="0" />
        <request index="5" response="00001000000100" foes="10001100000111" cont="0" />
        <request index="6" response="01111000000100" foes="01111100000110" cont="1" />
        <request index="7" response="01100000000000" foes="01100000000000" cont="0" />
        <request index="8" response="11100001111000" foes="11100001111100" cont="0" />
        <request index="9" response="11100001110010" foes="11100001110110" cont="1" />
        <request index="10" response="00000000000000" foes="00000001000010" cont="0" />
        <request index="11" response="00001000000100" foes="00001111000110" cont="0" />
        <request index="12" response="00001000000100" foes="00001111000110" cont="0" />
        <request index="13" response="00001000111100" foes="00001100111110" cont="1" />
    </junction>
    <junction id="C3" type="dead_end" x="200.00" y="300.00" incLanes="C2C3_0" intLanes="" shape="200.00,300.00 196.80,300.00 200.00,300.00" />
    <junction id="D2" type="dead_end" x="300.00" y="200.00" incLanes="C2D2_0 C2D2_1" intLanes="" shape="300.00,200.00 300.00,206.40 300.00,200.00" />

    <junction id=":B2_13_0" type="internal" x="100.00" y="194.69" incLanes=":B2_2_0 B3B2_0" intLanes=":B2_4_0 :B2_4_1 :B2_6_0 :B2_7_0 :B2_8_0 :B2_10_0 :B2_10_1 :B2_12_0" />
    <junction id=":B2_14_0" type="internal" x="100.72" y="202.08" incLanes=":B2_6_0 A2B2_0 A2B2_1" intLanes=":B2_1_0 :B2_2_0 :B2_8_0 :B2_9_0 :B2_10_0 :B2_10_1" />
    <junction id=":B2_15_0" type="internal" x="100.00" y="205.31" incLanes=":B2_9_0 B1B2_0" intLanes=":B2_0_0 :B2_1_0 :B2_4_0 :B2_4_1 :B2_6_0 :B2_10_0 :B2_10_1 :B2_12_0" />
    <junction id=":B2_16_0" type="internal" x="99.28" y="197.92" incLanes=":B2_12_0 C2B2_0 C2B2_1" intLanes=":B2_1_0 :B2_2_0 :B2_3_0 :B2_4_0 :B2_4_1 :B2_8_0 :B2_9_0" />
    <junction id=":C2_14_0" type="internal" x="199.08" y="193.41" incLanes=":C2_2_0 C3C2_0" intLanes=":C2_4_0 :C2_4_1 :C2_6_0 :C2_7_0 :C2_8_0 :C2_11_0 :C2_11_1 :C2_13_0" />
    <junction id=":C2_15_0" type="internal" x="203.35" y="199.35" incLanes=":C2_6_0 B2C2_0 B2C2_1" intLanes=":C2_1_0 :C2_2_0 :C2_8_0 :C2_9_0 :C2_10_0 :C2_11_0 :C2_11_1" />
    <junction id=":C2_16_0" type="internal" x="200.92" y="205.09" incLanes=":C2_9_0 C1C2_0" intLanes=":C2_0_0 :C2_1_0 :C2_4_0 :C2_4_1 :C2_6_0 :C2_11_0 :C2_11_1 :C2_13_0" />
    <junction id=":C2_17_0" type="internal" x="199.28" y="197.92" incLanes=":C2_13_0 D2C2_0 D2C2_1" intLanes=":C2_1_0 :C2_2_0 :C2_3_0 :C2_4_0 :C2_4_1 :C2_8_0 :C2_9_0" />

    <connection from="A2B2" to="B2C2" fromLane="0" toLane="0" via=":B2_10_0" tl="B2" linkIndex="10" dir="s" state="O" />
    <connection from="A2B2" to="B2C2" fromLane="1" toLane="1" via=":B2_10_1" tl="B2" linkIndex="11" dir="s" state="O" />
    <connection from="A2B2" to="B2B1" fromLane="2" toLane="0" via=":B2_12_0" tl="B2" linkIndex="12" dir="r" state="o" />
    <connection from="B1B2" to="B2A2" fromLane="0" toLane="0" via=":B2_0_0" tl="B2" linkIndex="0" dir="l" state="o" />
    <connection from="B1B2" to="B2B3" fromLane="0" toLane="0" via=":B2_1_0" tl="B2" linkIndex="1" dir="s" state="o" />
    <connection from="B1B2" to="B2C2" fromLane="0" toLane="1" via=":B2_2_0" tl="B2" linkIndex="2" dir="r" state="o" />
    <connection from="B2C2" to="C2C3" fromLane="0" toLane="0" via=":C2_10_0" tl="C2" linkIndex="10" dir="l" state="O" />
    <connection from="B2C2" to="C2D2" fromLane="0" toLane="0" via=":C2_11_0" tl="C2" linkIndex="11" dir="s" state="O" />
    <connection from="B2C2" to="C2D2" fromLane="1" toLane="1" via=":C2_11_1" tl="C2" linkIndex="12" dir="s" state="O" />
    <connection from="B2C2" to="C2C1" fromLane="2" toLane="0" via=":C2_13_0" tl="C2" linkIndex="13" dir="r" state="o" />
    <connection from="B3B2" to="B2C2" fromLane="0" toLane="0" via=":B2_7_0" tl="B2" linkIndex="7" dir="l" state="o" />
    <connection from="B3B2" to="B2B1" fromLane="0" toLane="0" via=":B2_8_0" tl="B2" linkIndex="8" dir="s" state="o" />
    <connection from="B3B2" to="B2A2" fromLane="0" toLane="1" via=":B2_9_0" tl="B2" linkIndex="9" dir="r" state="o" />
    <connection from="C1C2" to="C2B2" fromLane="0" toLane="0" via=":C2_0_0" tl="C2" linkIndex="0" dir="l" state="o" />
    <connection from="C1C2" to="C2C3" fromLane="0" toLane="0" via=":C2_1_0" tl="C2" linkIndex="1" dir="s" state="o" />
    <connection from="C1C2" to="C2D2" fromLane="0" toLane="1" via=":C2_2_0" tl="C2" linkIndex="2" dir="r" state="o" />
    <connection from="C2B2" to="B2B1" fromLane="0" toLane="0" via=":B2_3_0" tl="B2" linkIndex="3" dir="l" state="O" />
    <connection from="C2B2" to="B2A2" fromLane="0" toLane="0" via=":B2_4_0" tl="B2" linkIndex="4" dir="s" state="O" />
    <connection from="C2B2" to="B2A2" fromLane="1" toLane="1" via=":B2_4_1" tl="B2" linkIndex="5" dir="s" state="O" />
    <connection from="C2B2" to="B2B3" fromLane="2" toLane="0" via=":B2_6_0" tl="B2" linkIndex="6" dir="r" state="o" />
    <connection from="C3C2" to="C2D2" fromLane="0" toLane="0" via=":C2_7_0" tl="C2" linkIndex="7" dir="l" state="o" />
    <connection from="C3C2" to="C2C1" fromLane="0" toLane="0" via=":C2_8_0" tl="C2" linkIndex="8" dir="s" state="o" />
    <connection from="C3C2" to="C2B2" fromLane="0" toLane="1" via=":C2_9_0" tl="C2" linkIndex="9" dir="r" state="o" />
    <connection from="D2C2" to="C2C1" fromLane="0" toLane="0" via=":C2_3_0" tl="C2" linkIndex="3" dir="l" state="O" />
    <connection from="D2C2" to="C2B2" fromLane="0" toLane="0" via=":C2_4_0" tl="C2" linkIndex="4" dir="s" state="O" />
    <connection from="D2C2" to="C2B2" fromLane="1" toLane="1" via=":C2_4_1" tl="C2" linkIndex="5" dir="s" state="O" />
    <connection from="D2C2" to="C2C3" fromLane="2" toLane="0" via=":C2_6_0" tl="C2" linkIndex="6" dir="r" state="o" />

    <connection from=":B2_0" to="B2A2" fromLane="0" toLane="0" dir="l" state="M" />
    <connection from=":B2_1" to="B2B3" fromLane="0" toLane="0" dir="s" state="M" />
    <connection from=":B2_2" to="B2C2" fromLane="0" toLane="1" via=":B2_13_0" dir="r" state="m" />
    <connection from=":B2_13" to="B2C2" fromLane="0" toLane="1" dir="r" state="M" />
    <connection from=":B2_3" to="B2B1" fromLane="0" toLane="0" dir="l" state="M" />
    <connection from=":B2_4" to="B2A2" fromLane="0" toLane="0" dir="s" state="M" />
    <connection from=":B2_4" to="B2A2" fromLane="1" toLane="1" dir="s" state="M" />
    <connection from=":B2_6" to="B2B3" fromLane="0" toLane="0" via=":B2_14_0" dir="r" state="m" />
    <connection from=":B2_14" to="B2B3" fromLane="0" toLane="0" dir="r" state="M" />
    <connection from=":B2_7" to="B2C2" fromLane="0" toLane="0" dir="l" state="M" />
    <connection from=":B2_8" to="B2B1" fromLane="0" toLane="0" dir="s" state="M" />
    <connection from=":B2_9" to="B2A2" fromLane="0" toLane="1" via=":B2_15_0" dir="r" state="m" />
    <connection from=":B2_15" to="B2A2" fromLane="0" toLane="1" dir="r" state="M" />
    <connection from=":B2_10" to="B2C2" fromLane="0" toLane="0" dir="s" state="M" />
    <connection from=":B2_10" to="B2C2" fromLane="1" toLane="1" dir="s" state="M" />
    <connection from=":B2_12" to="B2B1" fromLane="0" toLane="0" via=":B2_16_0" dir="r" state="m" />
    <connection from=":B2_16" to="B2B1" fromLane="0" toLane="0" dir="r" state="M" />
    <connection from=":C2_0" to="C2B2" fromLane="0" toLane="0" dir="l" state="M" />
    <connection from=":C2_1" to="C2C3" fromLane="0" toLane="0" dir="s" state="M" />
    <connection from=":C2_2" to="C2D2" fromLane="0" toLane="1" via=":C2_14_0" dir="r" state="m" />
    <connection from=":C2_14" to="C2D2" fromLane="0" toLane="1" dir="r" state="M" />
    <connection from=":C2_3" to="C2C1" fromLane="0" toLane="0" dir="l" state="M" />
    <connection from=":C2_4" to="C2B2" fromLane="0" toLane="0" dir="s" state="M" />
    <connection from=":C2_4" to="C2B2" fromLane="1" toLane="1" dir="s" state="M" />
    <connection from=":C2_6" to="C2C3" fromLane="0" toLane="0" via=":C2_15_0" dir="r" state="m" />
    <connection from=":C2_15" to="C2C3" fromLane="0" toLane="0" dir="r" state="M" />
    <connection from=":C2_7" to="C2D2" fromLane="0" toLane="0" dir="l" state="M" />
    <connection from=":C2_8" to="C2C1" fromLane="0" toLane="0" dir="s" state="M" />
    <connection from=":C2_9" to="C2B2" fromLane="0" toLane="1" via=":C2_16_0" dir="r" state="m" />
    <connection from=":C2_16" to="C2B2" fromLane="0" toLane="1" dir="r" state="M" />
    <connection from=":C2_10" to="C2C3" fromLane="0" toLane="0" dir="l" state="M" />
    <connection from=":C2_11" to="C2D2" fromLane="0" toLane="0" dir="s" state="M" />
    <connection from=":C2_11" to="C2D2" fromLane="1" toLane="1" dir="s" state="M" />
    <connection from=":C2_13" to="C2C1" fromLane="0" toLane="0" via=":C2_17_0" dir="r" state="m" />
    <connection from=":C2_17" to="C2C1" fromLane="0" toLane="0" dir="r" state="M" />

</net>